data_image0
_cell_length_a       11.5865
_cell_length_b       10.0691
_cell_length_c       13.1371
_cell_angle_alpha    90
_cell_angle_beta     90
_cell_angle_gamma    90

_symmetry_space_group_name_H-M    "P 1"
_symmetry_int_tables_number       1

loop_
  _symmetry_equiv_pos_as_xyz
  'x, y, z'

loop_
  _atom_site_label
  _atom_site_occupancy
  _atom_site_fract_x
  _atom_site_fract_y
  _atom_site_fract_z
  _atom_site_thermal_displace_type
  _atom_site_B_iso_or_equiv
  _atom_site_type_symbol
  Br1      1.0000 0.58042  0.75000  0.34279  Biso   1.000  Br
  Br2      1.0000 0.91958  0.25000  0.84279  Biso   1.000  Br
  Br3      1.0000 0.41958  0.25000  0.65721  Biso   1.000  Br
  Br4      1.0000 0.08042  0.75000  0.15721  Biso   1.000  Br
  Br5      1.0000 0.76137  0.55158  0.12615  Biso   1.000  Br
  Br6      1.0000 0.73863  0.44842  0.62615  Biso   1.000  Br
  Br7      1.0000 0.23863  0.05158  0.87385  Biso   1.000  Br
  Br8      1.0000 0.26137  0.94842  0.37385  Biso   1.000  Br
  Br9      1.0000 0.23863  0.44842  0.87385  Biso   1.000  Br
  Br10     1.0000 0.26137  0.55158  0.37385  Biso   1.000  Br
  Br11     1.0000 0.76137  0.94842  0.12615  Biso   1.000  Br
  Br12     1.0000 0.73863  0.05158  0.62615  Biso   1.000  Br
  Cu1      1.0000 0.38357  0.75000  0.40342  Biso   1.000  Cu
  Cu2      1.0000 0.11643  0.25000  0.90342  Biso   1.000  Cu
  Cu3      1.0000 0.61643  0.25000  0.59658  Biso   1.000  Cu
  Cu4      1.0000 0.88357  0.75000  0.09658  Biso   1.000  Cu
  Cu5      1.0000 0.64553  0.75000  0.16572  Biso   1.000  Cu
  Cu6      1.0000 0.85447  0.25000  0.66572  Biso   1.000  Cu
  Cu7      1.0000 0.35447  0.25000  0.83428  Biso   1.000  Cu
  Cu8      1.0000 0.14553  0.75000  0.33428  Biso   1.000  Cu
  S1       1.0000 0.48492  0.75000  0.06573  Biso   1.000  S
  S2       1.0000 0.01508  0.25000  0.56573  Biso   1.000  S
  S3       1.0000 0.51508  0.25000  0.93427  Biso   1.000  S
  S4       1.0000 0.98492  0.75000  0.43427  Biso   1.000  S
  O1       1.0000 0.49790  0.75000  0.95170  Biso   1.000  O
  O2       1.0000 0.00210  0.25000  0.45170  Biso   1.000  O
  O3       1.0000 0.50210  0.25000  0.04830  Biso   1.000  O
  O4       1.0000 0.99790  0.75000  0.54830  Biso   1.000  O
  N1       1.0000 0.39930  0.75000  0.56520  Biso   1.000  N
  N2       1.0000 0.10070  0.25000  0.06520  Biso   1.000  N
  N3       1.0000 0.60070  0.25000  0.43480  Biso   1.000  N
  N4       1.0000 0.89930  0.75000  0.93480  Biso   1.000  N
  N5       1.0000 0.41760  0.75000  0.75830  Biso   1.000  N
  N6       1.0000 0.08240  0.25000  0.25830  Biso   1.000  N
  N7       1.0000 0.58240  0.25000  0.24170  Biso   1.000  N
  N8       1.0000 0.91760  0.75000  0.74170  Biso   1.000  N
  H1       1.0000 0.42460  0.75000  0.83270  Biso   1.000  H
  H2       1.0000 0.07540  0.25000  0.33270  Biso   1.000  H
  H3       1.0000 0.57540  0.25000  0.16730  Biso   1.000  H
  H4       1.0000 0.92460  0.75000  0.66730  Biso   1.000  H
  C1       1.0000 0.39290  0.61530  0.09770  Biso   1.000  C
  C2       1.0000 0.10710  0.38470  0.59770  Biso   1.000  C
  C3       1.0000 0.60710  0.11530  0.90230  Biso   1.000  C
  C4       1.0000 0.89290  0.88470  0.40230  Biso   1.000  C
  C5       1.0000 0.60710  0.38470  0.90230  Biso   1.000  C
  C6       1.0000 0.89290  0.61530  0.40230  Biso   1.000  C
  C7       1.0000 0.39290  0.88470  0.09770  Biso   1.000  C
  C8       1.0000 0.10710  0.11530  0.59770  Biso   1.000  C
  H5       1.0000 0.32380  0.62000  0.05760  Biso   1.000  H
  H6       1.0000 0.17620  0.38000  0.55760  Biso   1.000  H
  H7       1.0000 0.67620  0.12000  0.94240  Biso   1.000  H
  H8       1.0000 0.82380  0.88000  0.44240  Biso   1.000  H
  H9       1.0000 0.67620  0.38000  0.94240  Biso   1.000  H
  H10      1.0000 0.82380  0.62000  0.44240  Biso   1.000  H
  H11      1.0000 0.32380  0.88000  0.05760  Biso   1.000  H
  H12      1.0000 0.17620  0.12000  0.55760  Biso   1.000  H
  H13      1.0000 0.37330  0.62010  0.16860  Biso   1.000  H
  H14      1.0000 0.12670  0.37990  0.66860  Biso   1.000  H
  H15      1.0000 0.62670  0.12010  0.83140  Biso   1.000  H
  H16      1.0000 0.87330  0.87990  0.33140  Biso   1.000  H
  H17      1.0000 0.62670  0.37990  0.83140  Biso   1.000  H
  H18      1.0000 0.87330  0.62010  0.33140  Biso   1.000  H
  H19      1.0000 0.37330  0.87990  0.16860  Biso   1.000  H
  H20      1.0000 0.12670  0.12010  0.66860  Biso   1.000  H
  H21      1.0000 0.43180  0.53300  0.08420  Biso   1.000  H
  H22      1.0000 0.06820  0.46700  0.58420  Biso   1.000  H
  H23      1.0000 0.56820  0.03300  0.91580  Biso   1.000  H
  H24      1.0000 0.93180  0.96700  0.41580  Biso   1.000  H
  H25      1.0000 0.56820  0.46700  0.91580  Biso   1.000  H
  H26      1.0000 0.93180  0.53300  0.41580  Biso   1.000  H
  H27      1.0000 0.43180  0.96700  0.08420  Biso   1.000  H
  H28      1.0000 0.06820  0.03300  0.58420  Biso   1.000  H
  C9       1.0000 0.46230  0.86870  0.59950  Biso   1.000  C
  C10      1.0000 0.03770  0.13130  0.09950  Biso   1.000  C
  C11      1.0000 0.53770  0.36870  0.40050  Biso   1.000  C
  C12      1.0000 0.96230  0.63130  0.90050  Biso   1.000  C
  C13      1.0000 0.53770  0.13130  0.40050  Biso   1.000  C
  C14      1.0000 0.96230  0.86870  0.90050  Biso   1.000  C
  C15      1.0000 0.46230  0.63130  0.59950  Biso   1.000  C
  C16      1.0000 0.03770  0.36870  0.09950  Biso   1.000  C
  H29      1.0000 0.42160  0.94770  0.57700  Biso   1.000  H
  H30      1.0000 0.07840  0.05230  0.07700  Biso   1.000  H
  H31      1.0000 0.57840  0.44770  0.42300  Biso   1.000  H
  H32      1.0000 0.92160  0.55230  0.92300  Biso   1.000  H
  H33      1.0000 0.57840  0.05230  0.42300  Biso   1.000  H
  H34      1.0000 0.92160  0.94770  0.92300  Biso   1.000  H
  H35      1.0000 0.42160  0.55230  0.57700  Biso   1.000  H
  H36      1.0000 0.07840  0.44770  0.07700  Biso   1.000  H
  H37      1.0000 0.53840  0.86960  0.56880  Biso   1.000  H
  H38      1.0000 0.96160  0.13040  0.06880  Biso   1.000  H
  H39      1.0000 0.46160  0.36960  0.43120  Biso   1.000  H
  H40      1.0000 0.03840  0.63040  0.93120  Biso   1.000  H
  H41      1.0000 0.46160  0.13040  0.43120  Biso   1.000  H
  H42      1.0000 0.03840  0.86960  0.93120  Biso   1.000  H
  H43      1.0000 0.53840  0.63040  0.56880  Biso   1.000  H
  H44      1.0000 0.96160  0.36960  0.06880  Biso   1.000  H
  C17      1.0000 0.47430  0.87180  0.71620  Biso   1.000  C
  C18      1.0000 0.02570  0.12820  0.21620  Biso   1.000  C
  C19      1.0000 0.52570  0.37180  0.28380  Biso   1.000  C
  C20      1.0000 0.97430  0.62820  0.78380  Biso   1.000  C
  C21      1.0000 0.52570  0.12820  0.28380  Biso   1.000  C
  C22      1.0000 0.97430  0.87180  0.78380  Biso   1.000  C
  C23      1.0000 0.47430  0.62820  0.71620  Biso   1.000  C
  C24      1.0000 0.02570  0.37180  0.21620  Biso   1.000  C
  H45      1.0000 0.55520  0.87340  0.73510  Biso   1.000  H
  H46      1.0000 0.94480  0.12660  0.23510  Biso   1.000  H
  H47      1.0000 0.44480  0.37340  0.26490  Biso   1.000  H
  H48      1.0000 0.05520  0.62660  0.76490  Biso   1.000  H
  H49      1.0000 0.44480  0.12660  0.26490  Biso   1.000  H
  H50      1.0000 0.05520  0.87340  0.76490  Biso   1.000  H
  H51      1.0000 0.55520  0.62660  0.73510  Biso   1.000  H
  H52      1.0000 0.94480  0.37340  0.23510  Biso   1.000  H
  H53      1.0000 0.43760  0.95080  0.74340  Biso   1.000  H
  H54      1.0000 0.06240  0.04920  0.24340  Biso   1.000  H
  H55      1.0000 0.56240  0.45080  0.25660  Biso   1.000  H
  H56      1.0000 0.93760  0.54920  0.75660  Biso   1.000  H
  H57      1.0000 0.56240  0.04920  0.25660  Biso   1.000  H
  H58      1.0000 0.93760  0.95080  0.75660  Biso   1.000  H
  H59      1.0000 0.43760  0.54920  0.74340  Biso   1.000  H
  H60      1.0000 0.06240  0.45080  0.24340  Biso   1.000  H
  C25      1.0000 0.28440  0.75000  0.61340  Biso   1.000  C
  C26      1.0000 0.21560  0.25000  0.11340  Biso   1.000  C
  C27      1.0000 0.71560  0.25000  0.38660  Biso   1.000  C
  C28      1.0000 0.78440  0.75000  0.88660  Biso   1.000  C
  H61      1.0000 0.24200  0.67210  0.59140  Biso   1.000  H
  H62      1.0000 0.25800  0.32790  0.09140  Biso   1.000  H
  H63      1.0000 0.75800  0.17210  0.40860  Biso   1.000  H
  H64      1.0000 0.74200  0.82790  0.90860  Biso   1.000  H
  H65      1.0000 0.75800  0.32790  0.40860  Biso   1.000  H
  H66      1.0000 0.74200  0.67210  0.90860  Biso   1.000  H
  H67      1.0000 0.24200  0.82790  0.59140  Biso   1.000  H
  H68      1.0000 0.25800  0.17210  0.09140  Biso   1.000  H
  C29      1.0000 0.29270  0.75000  0.72940  Biso   1.000  C
  C30      1.0000 0.20730  0.25000  0.22940  Biso   1.000  C
  C31      1.0000 0.70730  0.25000  0.27060  Biso   1.000  C
  C32      1.0000 0.79270  0.75000  0.77060  Biso   1.000  C
  H69      1.0000 0.25490  0.82810  0.75690  Biso   1.000  H
  H70      1.0000 0.24510  0.17190  0.25690  Biso   1.000  H
  H71      1.0000 0.74510  0.32810  0.24310  Biso   1.000  H
  H72      1.0000 0.75490  0.67190  0.74310  Biso   1.000  H
  H73      1.0000 0.74510  0.17190  0.24310  Biso   1.000  H
  H74      1.0000 0.75490  0.82810  0.74310  Biso   1.000  H
  H75      1.0000 0.25490  0.67190  0.75690  Biso   1.000  H
  H76      1.0000 0.24510  0.32810  0.25690  Biso   1.000  H
