data_image0
_cell_length_a       11.403
_cell_length_b       14.682
_cell_length_c       22.264
_cell_angle_alpha    90
_cell_angle_beta     91
_cell_angle_gamma    90

_symmetry_space_group_name_H-M    "P 1"
_symmetry_int_tables_number       1

loop_
  _symmetry_equiv_pos_as_xyz
  'x, y, z'

loop_
  _atom_site_label
  _atom_site_occupancy
  _atom_site_fract_x
  _atom_site_fract_y
  _atom_site_fract_z
  _atom_site_thermal_displace_type
  _atom_site_B_iso_or_equiv
  _atom_site_type_symbol
  W1       1.0000 0.19756  0.66535  0.44594  Biso   1.000  W
  W2       1.0000 0.30244  0.16535  0.05406  Biso   1.000  W
  W3       1.0000 0.80244  0.33465  0.55406  Biso   1.000  W
  W4       1.0000 0.69756  0.83465  0.94594  Biso   1.000  W
  W5       1.0000 0.89886  0.71953  0.46374  Biso   1.000  W
  W6       1.0000 0.60114  0.21953  0.03626  Biso   1.000  W
  W7       1.0000 0.10114  0.28047  0.53626  Biso   1.000  W
  W8       1.0000 0.39886  0.78047  0.96374  Biso   1.000  W
  W9       1.0000 0.01620  0.43091  0.65173  Biso   1.000  W
  W10      1.0000 0.48380  0.93091  0.84827  Biso   1.000  W
  W11      1.0000 0.98380  0.56909  0.34827  Biso   1.000  W
  W12      1.0000 0.51620  0.06909  0.15173  Biso   1.000  W
  W13      1.0000 0.29682  0.44148  0.47732  Biso   1.000  W
  W14      1.0000 0.20318  0.94148  0.02268  Biso   1.000  W
  W15      1.0000 0.70318  0.55852  0.52268  Biso   1.000  W
  W16      1.0000 0.79682  0.05852  0.97732  Biso   1.000  W
  W17      1.0000 0.21917  0.58801  0.59524  Biso   1.000  W
  W18      1.0000 0.28083  0.08801  0.90476  Biso   1.000  W
  W19      1.0000 0.78083  0.41199  0.40476  Biso   1.000  W
  W20      1.0000 0.71917  0.91199  0.09524  Biso   1.000  W
  W21      1.0000 0.92389  0.65357  0.61589  Biso   1.000  W
  W22      1.0000 0.57611  0.15357  0.88411  Biso   1.000  W
  W23      1.0000 0.07611  0.34643  0.38411  Biso   1.000  W
  W24      1.0000 0.42389  0.84643  0.11589  Biso   1.000  W
  Cu1      1.0000 0.38930  0.76883  0.69824  Biso   1.000  Cu
  Cu2      1.0000 0.11070  0.26883  0.80176  Biso   1.000  Cu
  Cu3      1.0000 0.61070  0.23117  0.30176  Biso   1.000  Cu
  Cu4      1.0000 0.88930  0.73117  0.19824  Biso   1.000  Cu
  Si1      1.0000 0.00000  0.50000  0.50000  Biso   1.000  Si
  Si2      1.0000 0.50000  0.00000  0.00000  Biso   1.000  Si
  N1       1.0000 0.50670  0.79440  0.63640  Biso   1.000  N
  N2       1.0000 0.99330  0.29440  0.86360  Biso   1.000  N
  N3       1.0000 0.49330  0.20560  0.36360  Biso   1.000  N
  N4       1.0000 0.00670  0.70560  0.13640  Biso   1.000  N
  N5       1.0000 0.49960  0.67640  0.73530  Biso   1.000  N
  N6       1.0000 0.00040  0.17640  0.76470  Biso   1.000  N
  N7       1.0000 0.50040  0.32360  0.26470  Biso   1.000  N
  N8       1.0000 0.99960  0.82360  0.23530  Biso   1.000  N
  N9       1.0000 0.23650  0.24570  0.74440  Biso   1.000  N
  N10      1.0000 0.26350  0.74570  0.75560  Biso   1.000  N
  N11      1.0000 0.76350  0.75430  0.25560  Biso   1.000  N
  N12      1.0000 0.73650  0.25430  0.24440  Biso   1.000  N
  N13      1.0000 0.28290  0.86530  0.65990  Biso   1.000  N
  N14      1.0000 0.21710  0.36530  0.84010  Biso   1.000  N
  N15      1.0000 0.71710  0.13470  0.34010  Biso   1.000  N
  N16      1.0000 0.78290  0.63470  0.15990  Biso   1.000  N
  N17      1.0000 0.14530  0.94030  0.61290  Biso   1.000  N
  N18      1.0000 0.35470  0.44030  0.88710  Biso   1.000  N
  N19      1.0000 0.85470  0.05970  0.38710  Biso   1.000  N
  N20      1.0000 0.64530  0.55970  0.11290  Biso   1.000  N
  N21      1.0000 0.56550  0.84160  0.54830  Biso   1.000  N
  N22      1.0000 0.93450  0.34160  0.95170  Biso   1.000  N
  N23      1.0000 0.43450  0.15840  0.45170  Biso   1.000  N
  N24      1.0000 0.06550  0.65840  0.04830  Biso   1.000  N
  N25      1.0000 0.61390  0.55920  0.73880  Biso   1.000  N
  N26      1.0000 0.88610  0.05920  0.76120  Biso   1.000  N
  N27      1.0000 0.38610  0.44080  0.26120  Biso   1.000  N
  N28      1.0000 0.11390  0.94080  0.23880  Biso   1.000  N
  N29      1.0000 0.38030  0.27800  0.68180  Biso   1.000  N
  N30      1.0000 0.11970  0.77800  0.81820  Biso   1.000  N
  N31      1.0000 0.61970  0.72200  0.31820  Biso   1.000  N
  N32      1.0000 0.88030  0.22200  0.18180  Biso   1.000  N
  C1       1.0000 0.59800  0.58500  0.79510  Biso   1.000  C
  C2       1.0000 0.90200  0.08500  0.70490  Biso   1.000  C
  C3       1.0000 0.40200  0.41500  0.20490  Biso   1.000  C
  C4       1.0000 0.09800  0.91500  0.29510  Biso   1.000  C
  H1       1.0000 0.63240  0.55790  0.82870  Biso   1.000  H
  H2       1.0000 0.86760  0.05790  0.67130  Biso   1.000  H
  H3       1.0000 0.36760  0.44210  0.17130  Biso   1.000  H
  H4       1.0000 0.13240  0.94210  0.32870  Biso   1.000  H
  C5       1.0000 0.52400  0.66020  0.79640  Biso   1.000  C
  C6       1.0000 0.97600  0.16020  0.70360  Biso   1.000  C
  C7       1.0000 0.47600  0.33980  0.20360  Biso   1.000  C
  C8       1.0000 0.02400  0.83980  0.29640  Biso   1.000  C
  H5       1.0000 0.49620  0.69170  0.82960  Biso   1.000  H
  H6       1.0000 0.00380  0.19170  0.67040  Biso   1.000  H
  H7       1.0000 0.50380  0.30830  0.17040  Biso   1.000  H
  H8       1.0000 0.99620  0.80830  0.32960  Biso   1.000  H
  C9       1.0000 0.65670  0.85350  0.58830  Biso   1.000  C
  C10      1.0000 0.84330  0.35350  0.91170  Biso   1.000  C
  C11      1.0000 0.34330  0.14650  0.41170  Biso   1.000  C
  C12      1.0000 0.15670  0.64650  0.08830  Biso   1.000  C
  H9       1.0000 0.72980  0.87780  0.57970  Biso   1.000  H
  H10      1.0000 0.77020  0.37780  0.92030  Biso   1.000  H
  H11      1.0000 0.27020  0.12220  0.42030  Biso   1.000  H
  H12      1.0000 0.22980  0.62220  0.07970  Biso   1.000  H
  C13      1.0000 0.47700  0.81400  0.57690  Biso   1.000  C
  C14      1.0000 0.02300  0.31400  0.92310  Biso   1.000  C
  C15      1.0000 0.52300  0.18600  0.42310  Biso   1.000  C
  C16      1.0000 0.97700  0.68600  0.07690  Biso   1.000  C
  H13      1.0000 0.40220  0.80720  0.56020  Biso   1.000  H
  H14      1.0000 0.09780  0.30720  0.93980  Biso   1.000  H
  H15      1.0000 0.59780  0.19280  0.43980  Biso   1.000  H
  H16      1.0000 0.90220  0.69280  0.06020  Biso   1.000  H
  C17      1.0000 0.28730  0.30750  0.71090  Biso   1.000  C
  C18      1.0000 0.21270  0.80750  0.78910  Biso   1.000  C
  C19      1.0000 0.71270  0.69250  0.28910  Biso   1.000  C
  C20      1.0000 0.78730  0.19250  0.21090  Biso   1.000  C
  H17      1.0000 0.26020  0.36710  0.70790  Biso   1.000  H
  H18      1.0000 0.23980  0.86710  0.79210  Biso   1.000  H
  H19      1.0000 0.73980  0.63290  0.29210  Biso   1.000  H
  H20      1.0000 0.76020  0.13290  0.20790  Biso   1.000  H
  C21      1.0000 0.68000  0.47960  0.71670  Biso   1.000  C
  C22      1.0000 0.82000  0.97960  0.78330  Biso   1.000  C
  C23      1.0000 0.32000  0.52040  0.28330  Biso   1.000  C
  C24      1.0000 0.18000  0.02040  0.21670  Biso   1.000  C
  H21      1.0000 0.71310  0.49380  0.67790  Biso   1.000  H
  H22      1.0000 0.78690  0.99380  0.82210  Biso   1.000  H
  H23      1.0000 0.28690  0.50620  0.32210  Biso   1.000  H
  H24      1.0000 0.21310  0.00620  0.17790  Biso   1.000  H
  H25      1.0000 0.74440  0.46610  0.74440  Biso   1.000  H
  H26      1.0000 0.75560  0.96610  0.75560  Biso   1.000  H
  H27      1.0000 0.25560  0.53390  0.25560  Biso   1.000  H
  H28      1.0000 0.24440  0.03390  0.24440  Biso   1.000  H
  C25      1.0000 0.50510  0.41270  0.66210  Biso   1.000  C
  C26      1.0000 0.99490  0.91270  0.83790  Biso   1.000  C
  C27      1.0000 0.49490  0.58730  0.33790  Biso   1.000  C
  C28      1.0000 0.00510  0.08730  0.16210  Biso   1.000  C
  H29      1.0000 0.54050  0.44540  0.62910  Biso   1.000  H
  H30      1.0000 0.95950  0.94540  0.87090  Biso   1.000  H
  H31      1.0000 0.45950  0.55460  0.37090  Biso   1.000  H
  H32      1.0000 0.04050  0.05460  0.12910  Biso   1.000  H
  H33      1.0000 0.44460  0.45130  0.67850  Biso   1.000  H
  H34      1.0000 0.05540  0.95130  0.82150  Biso   1.000  H
  H35      1.0000 0.55540  0.54870  0.32150  Biso   1.000  H
  H36      1.0000 0.94460  0.04870  0.17850  Biso   1.000  H
  C29      1.0000 0.45000  0.32800  0.63810  Biso   1.000  C
  C30      1.0000 0.05000  0.82800  0.86190  Biso   1.000  C
  C31      1.0000 0.55000  0.67200  0.36190  Biso   1.000  C
  C32      1.0000 0.95000  0.17200  0.13810  Biso   1.000  C
  H37      1.0000 0.51060  0.28780  0.62360  Biso   1.000  H
  H38      1.0000 0.98940  0.78780  0.87640  Biso   1.000  H
  H39      1.0000 0.48940  0.71220  0.37640  Biso   1.000  H
  H40      1.0000 0.01060  0.21220  0.12360  Biso   1.000  H
  H41      1.0000 0.39920  0.34350  0.60410  Biso   1.000  H
  H42      1.0000 0.10080  0.84350  0.89590  Biso   1.000  H
  H43      1.0000 0.60080  0.65650  0.39590  Biso   1.000  H
  H44      1.0000 0.89920  0.15650  0.10410  Biso   1.000  H
  C33      1.0000 0.54500  0.97800  0.48360  Biso   1.000  C
  C34      1.0000 0.95500  0.47800  0.01640  Biso   1.000  C
  C35      1.0000 0.45500  0.02200  0.51640  Biso   1.000  C
  C36      1.0000 0.04500  0.52200  0.98360  Biso   1.000  C
  H45      1.0000 0.53230  0.99350  0.44160  Biso   1.000  H
  H46      1.0000 0.96770  0.49350  0.05840  Biso   1.000  H
  H47      1.0000 0.46770  0.00650  0.55840  Biso   1.000  H
  H48      1.0000 0.03230  0.50650  0.94160  Biso   1.000  H
  H49      1.0000 0.61880  0.00520  0.49600  Biso   1.000  H
  H50      1.0000 0.88120  0.50520  0.00400  Biso   1.000  H
  H51      1.0000 0.38120  0.99480  0.50400  Biso   1.000  H
  H52      1.0000 0.11880  0.49480  0.99600  Biso   1.000  H
  C37      1.0000 0.38000  0.18460  0.69580  Biso   1.000  C
  C38      1.0000 0.12000  0.68460  0.80420  Biso   1.000  C
  C39      1.0000 0.62000  0.81540  0.30420  Biso   1.000  C
  C40      1.0000 0.88000  0.31540  0.19580  Biso   1.000  C
  H53      1.0000 0.43040  0.14120  0.68040  Biso   1.000  H
  H54      1.0000 0.06960  0.64120  0.81960  Biso   1.000  H
  H55      1.0000 0.56960  0.85880  0.31960  Biso   1.000  H
  H56      1.0000 0.93040  0.35880  0.18040  Biso   1.000  H
  C41      1.0000 0.55570  0.61740  0.70320  Biso   1.000  C
  C42      1.0000 0.94430  0.11740  0.79680  Biso   1.000  C
  C43      1.0000 0.44430  0.38260  0.29680  Biso   1.000  C
  C44      1.0000 0.05570  0.88260  0.20320  Biso   1.000  C
  H57      1.0000 0.55530  0.61590  0.66150  Biso   1.000  H
  H58      1.0000 0.94470  0.11590  0.83850  Biso   1.000  H
  H59      1.0000 0.44470  0.38410  0.33850  Biso   1.000  H
  H60      1.0000 0.05530  0.88410  0.16150  Biso   1.000  H
  C45      1.0000 0.29600  0.16810  0.73430  Biso   1.000  C
  C46      1.0000 0.20400  0.66810  0.76570  Biso   1.000  C
  C47      1.0000 0.70400  0.83190  0.26570  Biso   1.000  C
  C48      1.0000 0.79600  0.33190  0.23430  Biso   1.000  C
  H61      1.0000 0.27970  0.11190  0.75160  Biso   1.000  H
  H62      1.0000 0.22030  0.61190  0.74840  Biso   1.000  H
  H63      1.0000 0.72030  0.88810  0.24840  Biso   1.000  H
  H64      1.0000 0.77970  0.38810  0.25160  Biso   1.000  H
  C49      1.0000 0.04000  0.95900  0.58070  Biso   1.000  C
  C50      1.0000 0.46000  0.45900  0.91930  Biso   1.000  C
  C51      1.0000 0.96000  0.04100  0.41930  Biso   1.000  C
  C52      1.0000 0.54000  0.54100  0.08070  Biso   1.000  C
  H65      1.0000 0.98840  0.90670  0.58360  Biso   1.000  H
  H66      1.0000 0.51160  0.40670  0.91640  Biso   1.000  H
  H67      1.0000 0.01160  0.09330  0.41640  Biso   1.000  H
  H68      1.0000 0.48840  0.59330  0.08360  Biso   1.000  H
  H69      1.0000 0.00110  0.01020  0.59940  Biso   1.000  H
  H70      1.0000 0.49890  0.51020  0.90060  Biso   1.000  H
  H71      1.0000 0.99890  0.98980  0.40060  Biso   1.000  H
  H72      1.0000 0.50110  0.48980  0.09940  Biso   1.000  H
  C53      1.0000 0.05900  0.98100  0.51330  Biso   1.000  C
  C54      1.0000 0.44100  0.48100  0.98670  Biso   1.000  C
  C55      1.0000 0.94100  0.01900  0.48670  Biso   1.000  C
  C56      1.0000 0.55900  0.51900  0.01330  Biso   1.000  C
  H73      1.0000 0.12080  0.02620  0.50940  Biso   1.000  H
  H74      1.0000 0.37920  0.52620  0.99060  Biso   1.000  H
  H75      1.0000 0.87920  0.97380  0.49060  Biso   1.000  H
  H76      1.0000 0.62080  0.47380  0.00940  Biso   1.000  H
  H77      1.0000 0.08220  0.92650  0.49190  Biso   1.000  H
  H78      1.0000 0.41780  0.42650  0.00810  Biso   1.000  H
  H79      1.0000 0.91780  0.07350  0.50810  Biso   1.000  H
  H80      1.0000 0.58220  0.57350  0.99190  Biso   1.000  H
  C57      1.0000 0.18800  0.85710  0.62920  Biso   1.000  C
  C58      1.0000 0.31200  0.35710  0.87080  Biso   1.000  C
  C59      1.0000 0.81200  0.14290  0.37080  Biso   1.000  C
  C60      1.0000 0.68800  0.64290  0.12920  Biso   1.000  C
  H81      1.0000 0.15230  0.80190  0.61930  Biso   1.000  H
  H82      1.0000 0.34770  0.30190  0.88070  Biso   1.000  H
  H83      1.0000 0.84770  0.19810  0.38070  Biso   1.000  H
  H84      1.0000 0.65230  0.69810  0.11930  Biso   1.000  H
  C61      1.0000 0.22100  0.99910  0.63170  Biso   1.000  C
  C62      1.0000 0.27900  0.49910  0.86830  Biso   1.000  C
  C63      1.0000 0.77900  0.00090  0.36830  Biso   1.000  C
  C64      1.0000 0.72100  0.50090  0.13170  Biso   1.000  C
  H85      1.0000 0.21500  0.06150  0.62530  Biso   1.000  H
  H86      1.0000 0.28500  0.56150  0.87470  Biso   1.000  H
  H87      1.0000 0.78500  0.93850  0.37470  Biso   1.000  H
  H88      1.0000 0.71500  0.43850  0.12530  Biso   1.000  H
  C65      1.0000 0.59900  0.39510  0.71070  Biso   1.000  C
  C66      1.0000 0.90100  0.89510  0.78930  Biso   1.000  C
  C67      1.0000 0.40100  0.60490  0.28930  Biso   1.000  C
  C68      1.0000 0.09900  0.10490  0.21070  Biso   1.000  C
  H89      1.0000 0.56160  0.38320  0.74880  Biso   1.000  H
  H90      1.0000 0.93840  0.88320  0.75120  Biso   1.000  H
  H91      1.0000 0.43840  0.61680  0.25120  Biso   1.000  H
  H92      1.0000 0.06160  0.11680  0.24880  Biso   1.000  H
  H93      1.0000 0.64480  0.34200  0.70020  Biso   1.000  H
  H94      1.0000 0.85520  0.84200  0.79980  Biso   1.000  H
  H95      1.0000 0.35520  0.65800  0.29980  Biso   1.000  H
  H96      1.0000 0.14480  0.15800  0.20020  Biso   1.000  H
  C69      1.0000 0.62300  0.82500  0.64050  Biso   1.000  C
  C70      1.0000 0.87700  0.32500  0.85950  Biso   1.000  C
  C71      1.0000 0.37700  0.17500  0.35950  Biso   1.000  C
  C72      1.0000 0.12300  0.67500  0.14050  Biso   1.000  C
  H97      1.0000 0.66930  0.82420  0.67530  Biso   1.000  H
  H98      1.0000 0.83070  0.32420  0.82470  Biso   1.000  H
  H99      1.0000 0.33070  0.17580  0.32470  Biso   1.000  H
  H100     1.0000 0.16930  0.67580  0.17530  Biso   1.000  H
  C73      1.0000 0.55800  0.87900  0.48730  Biso   1.000  C
  C74      1.0000 0.94200  0.37900  0.01270  Biso   1.000  C
  C75      1.0000 0.44200  0.12100  0.51270  Biso   1.000  C
  C76      1.0000 0.05800  0.62100  0.98730  Biso   1.000  C
  H101     1.0000 0.62880  0.86200  0.46630  Biso   1.000  H
  H102     1.0000 0.87120  0.36200  0.03370  Biso   1.000  H
  H103     1.0000 0.37120  0.13800  0.53370  Biso   1.000  H
  H104     1.0000 0.12880  0.63800  0.96630  Biso   1.000  H
  H105     1.0000 0.49240  0.85080  0.46640  Biso   1.000  H
  H106     1.0000 0.00760  0.35080  0.03360  Biso   1.000  H
  H107     1.0000 0.50760  0.14920  0.53360  Biso   1.000  H
  H108     1.0000 0.99240  0.64920  0.96640  Biso   1.000  H
  C77      1.0000 0.31310  0.95810  0.66240  Biso   1.000  C
  C78      1.0000 0.18690  0.45810  0.83760  Biso   1.000  C
  C79      1.0000 0.68690  0.04190  0.33760  Biso   1.000  C
  C80      1.0000 0.81310  0.54190  0.16240  Biso   1.000  C
  H109     1.0000 0.37870  0.98520  0.68030  Biso   1.000  H
  H110     1.0000 0.12130  0.48520  0.81970  Biso   1.000  H
  H111     1.0000 0.62130  0.01480  0.31970  Biso   1.000  H
  H112     1.0000 0.87870  0.51480  0.18030  Biso   1.000  H
  O1       1.0000 0.75840  0.66220  0.47720  Biso   1.000  O
  O2       1.0000 0.74160  0.16220  0.02280  Biso   1.000  O
  O3       1.0000 0.24160  0.33780  0.52280  Biso   1.000  O
  O4       1.0000 0.25840  0.83780  0.97720  Biso   1.000  O
  O5       1.0000 0.93890  0.54230  0.65990  Biso   1.000  O
  O6       1.0000 0.56110  0.04230  0.84010  Biso   1.000  O
  O7       1.0000 0.06110  0.45770  0.34010  Biso   1.000  O
  O8       1.0000 0.43890  0.95770  0.15990  Biso   1.000  O
  O9       1.0000 0.32200  0.63500  0.64010  Biso   1.000  O
  O10      1.0000 0.17800  0.13500  0.85990  Biso   1.000  O
  O11      1.0000 0.67800  0.36500  0.35990  Biso   1.000  O
  O12      1.0000 0.82200  0.86500  0.14010  Biso   1.000  O
  O13      1.0000 0.22780  0.39100  0.40760  Biso   1.000  O
  O14      1.0000 0.27220  0.89100  0.09240  Biso   1.000  O
  O15      1.0000 0.77220  0.60900  0.59240  Biso   1.000  O
  O16      1.0000 0.72780  0.10900  0.90760  Biso   1.000  O
  O17      1.0000 0.06640  0.73560  0.45800  Biso   1.000  O
  O18      1.0000 0.43360  0.23560  0.04200  Biso   1.000  O
  O19      1.0000 0.93360  0.26440  0.54200  Biso   1.000  O
  O20      1.0000 0.56640  0.76440  0.95800  Biso   1.000  O
  O21      1.0000 0.23500  0.66820  0.52800  Biso   1.000  O
  O22      1.0000 0.26500  0.16820  0.97200  Biso   1.000  O
  O23      1.0000 0.76500  0.33180  0.47200  Biso   1.000  O
  O24      1.0000 0.73500  0.83180  0.02800  Biso   1.000  O
  O25      1.0000 0.03000  0.52980  0.57460  Biso   1.000  O
  O26      1.0000 0.47000  0.02980  0.92540  Biso   1.000  O
  O27      1.0000 0.97000  0.47020  0.42540  Biso   1.000  O
  O28      1.0000 0.53000  0.97020  0.07460  Biso   1.000  O
  O29      1.0000 0.28900  0.55650  0.44200  Biso   1.000  O
  O30      1.0000 0.21100  0.05650  0.05800  Biso   1.000  O
  O31      1.0000 0.71100  0.44350  0.55800  Biso   1.000  O
  O32      1.0000 0.78900  0.94350  0.94200  Biso   1.000  O
  O33      1.0000 0.13200  0.53910  0.49940  Biso   1.000  O
  O34      1.0000 0.36800  0.03910  0.00060  Biso   1.000  O
  O35      1.0000 0.86800  0.46090  0.50060  Biso   1.000  O
  O36      1.0000 0.63200  0.96090  0.99940  Biso   1.000  O
  O37      1.0000 0.16220  0.49440  0.64660  Biso   1.000  O
  O38      1.0000 0.33780  0.99440  0.85340  Biso   1.000  O
  O39      1.0000 0.83780  0.50560  0.35340  Biso   1.000  O
  O40      1.0000 0.66220  0.00560  0.14660  Biso   1.000  O
  O41      1.0000 0.90450  0.66850  0.38720  Biso   1.000  O
  O42      1.0000 0.59550  0.16850  0.11280  Biso   1.000  O
  O43      1.0000 0.09550  0.33150  0.61280  Biso   1.000  O
  O44      1.0000 0.40450  0.83150  0.88720  Biso   1.000  O
  O45      1.0000 0.08960  0.66040  0.61800  Biso   1.000  O
  O46      1.0000 0.41040  0.16040  0.88200  Biso   1.000  O
  O47      1.0000 0.91040  0.33960  0.38200  Biso   1.000  O
  O48      1.0000 0.58960  0.83960  0.11800  Biso   1.000  O
  O49      1.0000 0.88800  0.72700  0.66970  Biso   1.000  O
  O50      1.0000 0.61200  0.22700  0.83030  Biso   1.000  O
  O51      1.0000 0.11200  0.27300  0.33030  Biso   1.000  O
  O52      1.0000 0.38800  0.77300  0.16970  Biso   1.000  O
  O53      1.0000 0.92120  0.73300  0.54930  Biso   1.000  O
  O54      1.0000 0.57880  0.23300  0.95070  Biso   1.000  O
  O55      1.0000 0.07880  0.26700  0.45070  Biso   1.000  O
  O56      1.0000 0.42120  0.76700  0.04930  Biso   1.000  O
  O57      1.0000 0.91320  0.58160  0.51500  Biso   1.000  O
  O58      1.0000 0.58680  0.08160  0.98500  Biso   1.000  O
  O59      1.0000 0.08680  0.41840  0.48500  Biso   1.000  O
  O60      1.0000 0.41320  0.91840  0.01500  Biso   1.000  O
  O61      1.0000 0.30500  0.50040  0.55370  Biso   1.000  O
  O62      1.0000 0.19500  0.00040  0.94630  Biso   1.000  O
  O63      1.0000 0.69500  0.49960  0.44630  Biso   1.000  O
  O64      1.0000 0.80500  0.99960  0.05370  Biso   1.000  O
  O65      1.0000 0.03000  0.39470  0.72320  Biso   1.000  O
  O66      1.0000 0.47000  0.89470  0.77680  Biso   1.000  O
  O67      1.0000 0.97000  0.60530  0.27680  Biso   1.000  O
  O68      1.0000 0.53000  0.10530  0.22320  Biso   1.000  O
  O69      1.0000 0.12250  0.62290  0.37340  Biso   1.000  O
  O70      1.0000 0.37750  0.12290  0.12660  Biso   1.000  O
  O71      1.0000 0.87750  0.37710  0.62660  Biso   1.000  O
  O72      1.0000 0.62250  0.87710  0.87340  Biso   1.000  O
  O73      1.0000 0.01780  0.58460  0.45800  Biso   1.000  O
  O74      1.0000 0.48220  0.08460  0.04200  Biso   1.000  O
  O75      1.0000 0.98220  0.41540  0.54200  Biso   1.000  O
  O76      1.0000 0.51780  0.91540  0.95800  Biso   1.000  O
  O77      1.0000 0.43510  0.41250  0.46650  Biso   1.000  O
  O78      1.0000 0.06490  0.91250  0.03350  Biso   1.000  O
  O79      1.0000 0.56490  0.58750  0.53350  Biso   1.000  O
  O80      1.0000 0.93510  0.08750  0.96650  Biso   1.000  O
  O81      1.0000 0.29090  0.74170  0.42040  Biso   1.000  O
  O82      1.0000 0.20910  0.24170  0.07960  Biso   1.000  O
  O83      1.0000 0.70910  0.25830  0.57960  Biso   1.000  O
  O84      1.0000 0.79090  0.75830  0.92040  Biso   1.000  O
  O85      1.0000 0.85420  0.82380  0.44460  Biso   1.000  O
  O86      1.0000 0.64580  0.32380  0.05540  Biso   1.000  O
  O87      1.0000 0.14580  0.17620  0.55540  Biso   1.000  O
  O88      1.0000 0.35420  0.67620  0.94460  Biso   1.000  O
