data_image0
_cell_length_a       10.686
_cell_length_b       13.399
_cell_length_c       14.177
_cell_angle_alpha    84.473
_cell_angle_beta     68.2
_cell_angle_gamma    73.74

_symmetry_space_group_name_H-M    "P 1"
_symmetry_int_tables_number       1

loop_
  _symmetry_equiv_pos_as_xyz
  'x, y, z'

loop_
  _atom_site_label
  _atom_site_occupancy
  _atom_site_fract_x
  _atom_site_fract_y
  _atom_site_fract_z
  _atom_site_thermal_displace_type
  _atom_site_B_iso_or_equiv
  _atom_site_type_symbol
  I1       1.0000 0.45262  0.15289  0.08186  Biso   1.000  I
  I2       1.0000 0.54738  0.84711  0.91814  Biso   1.000  I
  I3       1.0000 0.32921  0.64681  0.51543  Biso   1.000  I
  I4       1.0000 0.67080  0.35319  0.48457  Biso   1.000  I
  Cu1      1.0000 0.54828  0.95190  0.06908  Biso   1.000  Cu
  Cu2      1.0000 0.45172  0.04810  0.93092  Biso   1.000  Cu
  Cu3      1.0000 0.56251  0.51731  0.39889  Biso   1.000  Cu
  Cu4      1.0000 0.43749  0.48269  0.60111  Biso   1.000  Cu
  N1       1.0000 0.63420  0.73231  0.20718  Biso   1.000  N
  N2       1.0000 0.36580  0.26769  0.79282  Biso   1.000  N
  S1       1.0000 0.75164  0.88667  0.10180  Biso   1.000  S
  S2       1.0000 0.24836  0.11333  0.89820  Biso   1.000  S
  S3       1.0000 0.39101  0.87479  0.19306  Biso   1.000  S
  S4       1.0000 0.60899  0.12521  0.80694  Biso   1.000  S
  S5       1.0000 0.73674  0.60483  0.33463  Biso   1.000  S
  S6       1.0000 0.26326  0.39517  0.66537  Biso   1.000  S
  C1       1.0000 0.74660  0.74688  0.11849  Biso   1.000  C
  C2       1.0000 0.25340  0.25312  0.88151  Biso   1.000  C
  H1       1.0000 0.73680  0.72320  0.05820  Biso   1.000  H
  H2       1.0000 0.26320  0.27680  0.94180  Biso   1.000  H
  H3       1.0000 0.83590  0.70380  0.12320  Biso   1.000  H
  H4       1.0000 0.16410  0.29620  0.87680  Biso   1.000  H
  C3       1.0000 0.50080  0.74125  0.20218  Biso   1.000  C
  C4       1.0000 0.49920  0.25875  0.79782  Biso   1.000  C
  H5       1.0000 0.44690  0.70810  0.26340  Biso   1.000  H
  H6       1.0000 0.55310  0.29190  0.73660  Biso   1.000  H
  H7       1.0000 0.51530  0.70060  0.14260  Biso   1.000  H
  H8       1.0000 0.48470  0.29940  0.85740  Biso   1.000  H
  C5       1.0000 0.64760  0.73634  0.30301  Biso   1.000  C
  C6       1.0000 0.35240  0.26366  0.69699  Biso   1.000  C
  H9       1.0000 0.55400  0.76070  0.35620  Biso   1.000  H
  H10      1.0000 0.44600  0.23930  0.64380  Biso   1.000  H
  H11      1.0000 0.70250  0.78590  0.30010  Biso   1.000  H
  H12      1.0000 0.29750  0.21410  0.69990  Biso   1.000  H
  C7       1.0000 0.91290  0.87322  0.99677  Biso   1.000  C
  C8       1.0000 0.08710  0.12678  0.00323  Biso   1.000  C
  C9       1.0000 0.03900  0.84817  0.01429  Biso   1.000  C
  C10      1.0000 0.96100  0.15183  0.98571  Biso   1.000  C
  C11      1.0000 0.16200  0.83680  0.93000  Biso   1.000  C
  C12      1.0000 0.83800  0.16320  0.07000  Biso   1.000  C
  H13      1.0000 0.24820  0.82060  0.94060  Biso   1.000  H
  H14      1.0000 0.75180  0.17940  0.05940  Biso   1.000  H
  C13      1.0000 0.16450  0.84810  0.83140  Biso   1.000  C
  C14      1.0000 0.83550  0.15190  0.16860  Biso   1.000  C
  C15      1.0000 0.03790  0.87440  0.81690  Biso   1.000  C
  C16      1.0000 0.96210  0.12560  0.18310  Biso   1.000  C
  H15      1.0000 0.03690  0.88350  0.74990  Biso   1.000  H
  H16      1.0000 0.96310  0.11650  0.25010  Biso   1.000  H
  C17      1.0000 0.91320  0.88730  0.89860  Biso   1.000  C
  C18      1.0000 0.08680  0.11270  0.10140  Biso   1.000  C
  H17      1.0000 0.82730  0.90590  0.88730  Biso   1.000  H
  H18      1.0000 0.17270  0.09410  0.11270  Biso   1.000  H
  C19      1.0000 0.04530  0.83420  0.11920  Biso   1.000  C
  C20      1.0000 0.95470  0.16580  0.88080  Biso   1.000  C
  H19      1.0000 0.14010  0.83020  0.11520  Biso   1.000  H
  H20      1.0000 0.85990  0.16980  0.88480  Biso   1.000  H
  H21      1.0000 0.02070  0.76990  0.14840  Biso   1.000  H
  H22      1.0000 0.97930  0.23010  0.85160  Biso   1.000  H
  H23      1.0000 0.97920  0.89340  0.16220  Biso   1.000  H
  H24      1.0000 0.02080  0.10660  0.83780  Biso   1.000  H
  C21      1.0000 0.30280  0.82980  0.74370  Biso   1.000  C
  C22      1.0000 0.69720  0.17020  0.25630  Biso   1.000  C
  H25      1.0000 0.28620  0.84790  0.67990  Biso   1.000  H
  H26      1.0000 0.71380  0.15210  0.32010  Biso   1.000  H
  H27      1.0000 0.35410  0.75640  0.74160  Biso   1.000  H
  H28      1.0000 0.64590  0.24360  0.25840  Biso   1.000  H
  H29      1.0000 0.35780  0.87320  0.75260  Biso   1.000  H
  H30      1.0000 0.64220  0.12680  0.24740  Biso   1.000  H
  C23      1.0000 0.34340  0.92669  0.31607  Biso   1.000  C
  C24      1.0000 0.65660  0.07331  0.68393  Biso   1.000  C
  C25      1.0000 0.22330  0.91181  0.39468  Biso   1.000  C
  C26      1.0000 0.77670  0.08819  0.60532  Biso   1.000  C
  C27      1.0000 0.18850  0.95711  0.48845  Biso   1.000  C
  C28      1.0000 0.81150  0.04289  0.51155  Biso   1.000  C
  H31      1.0000 0.10770  0.94770  0.54270  Biso   1.000  H
  H32      1.0000 0.89230  0.05230  0.45730  Biso   1.000  H
  C29      1.0000 0.26600  0.01528  0.50632  Biso   1.000  C
  C30      1.0000 0.73400  0.98472  0.49368  Biso   1.000  C
  C31      1.0000 0.38550  0.02777  0.42676  Biso   1.000  C
  C32      1.0000 0.61450  0.97223  0.57324  Biso   1.000  C
  H33      1.0000 0.44120  0.06650  0.43750  Biso   1.000  H
  H34      1.0000 0.55880  0.93350  0.56250  Biso   1.000  H
  C33      1.0000 0.42340  0.98435  0.33263  Biso   1.000  C
  C34      1.0000 0.57660  0.01565  0.66737  Biso   1.000  C
  H35      1.0000 0.50460  0.99380  0.27880  Biso   1.000  H
  H36      1.0000 0.49540  0.00620  0.72120  Biso   1.000  H
  C35      1.0000 0.13470  0.85063  0.37839  Biso   1.000  C
  C36      1.0000 0.86530  0.14937  0.62161  Biso   1.000  C
  H37      1.0000 0.05270  0.85290  0.44040  Biso   1.000  H
  H38      1.0000 0.94730  0.14710  0.55960  Biso   1.000  H
  H39      1.0000 0.18930  0.77830  0.36190  Biso   1.000  H
  H40      1.0000 0.81070  0.22170  0.63810  Biso   1.000  H
  H41      1.0000 0.10430  0.88080  0.32220  Biso   1.000  H
  H42      1.0000 0.89570  0.11920  0.67780  Biso   1.000  H
  C37      1.0000 0.22130  0.06790  0.60730  Biso   1.000  C
  C38      1.0000 0.77870  0.93210  0.39270  Biso   1.000  C
  H43      1.0000 0.17930  0.14220  0.60190  Biso   1.000  H
  H44      1.0000 0.82070  0.85780  0.39810  Biso   1.000  H
  H45      1.0000 0.30280  0.05860  0.62660  Biso   1.000  H
  H46      1.0000 0.69720  0.94140  0.37340  Biso   1.000  H
  H47      1.0000 0.15260  0.03700  0.65910  Biso   1.000  H
  H48      1.0000 0.84740  0.96300  0.34090  Biso   1.000  H
  C39      1.0000 0.78540  0.63625  0.43383  Biso   1.000  C
  C40      1.0000 0.21460  0.36375  0.56617  Biso   1.000  C
  C41      1.0000 0.92630  0.61983  0.41881  Biso   1.000  C
  C42      1.0000 0.07370  0.38017  0.58119  Biso   1.000  C
  C43      1.0000 0.95760  0.65120  0.49630  Biso   1.000  C
  C44      1.0000 0.04240  0.34880  0.50370  Biso   1.000  C
  H49      1.0000 0.05290  0.63950  0.48800  Biso   1.000  H
  H50      1.0000 0.94710  0.36050  0.51200  Biso   1.000  H
  C45      1.0000 0.85580  0.69880  0.58500  Biso   1.000  C
  C46      1.0000 0.14420  0.30120  0.41500  Biso   1.000  C
  C47      1.0000 0.71690  0.71230  0.59811  Biso   1.000  C
  C48      1.0000 0.28310  0.28770  0.40189  Biso   1.000  C
  H51      1.0000 0.64530  0.74390  0.65870  Biso   1.000  H
  H52      1.0000 0.35470  0.25610  0.34130  Biso   1.000  H
  C49      1.0000 0.68180  0.68020  0.52389  Biso   1.000  C
  C50      1.0000 0.31820  0.31980  0.47611  Biso   1.000  C
  H53      1.0000 0.58640  0.68820  0.53440  Biso   1.000  H
  H54      1.0000 0.41360  0.31180  0.46560  Biso   1.000  H
  C51      1.0000 0.04350  0.57090  0.32390  Biso   1.000  C
  C52      1.0000 0.95650  0.42910  0.67610  Biso   1.000  C
  H55      1.0000 0.13330  0.56550  0.33040  Biso   1.000  H
  H56      1.0000 0.86670  0.43450  0.66960  Biso   1.000  H
  H57      1.0000 0.03660  0.61410  0.26530  Biso   1.000  H
  H58      1.0000 0.96340  0.38590  0.73470  Biso   1.000  H
  H59      1.0000 0.03680  0.50140  0.31440  Biso   1.000  H
  H60      1.0000 0.96320  0.49860  0.68560  Biso   1.000  H
  C53      1.0000 0.89470  0.73790  0.66410  Biso   1.000  C
  C54      1.0000 0.10530  0.26210  0.33590  Biso   1.000  C
  H61      1.0000 0.86970  0.81400  0.66370  Biso   1.000  H
  H62      1.0000 0.13030  0.18600  0.33630  Biso   1.000  H
  H63      1.0000 0.99550  0.71100  0.64860  Biso   1.000  H
  H64      1.0000 0.00450  0.28900  0.35140  Biso   1.000  H
  H65      1.0000 0.84410  0.71380  0.73130  Biso   1.000  H
  H66      1.0000 0.15590  0.28620  0.26870  Biso   1.000  H
  N3       1.0000 0.51540  0.47995  0.28487  Biso   1.000  N
  N4       1.0000 0.48460  0.52005  0.71513  Biso   1.000  N
  C55      1.0000 0.47880  0.46240  0.22490  Biso   1.000  C
  C56      1.0000 0.52120  0.53760  0.77510  Biso   1.000  C
  C57      1.0000 0.42990  0.44110  0.14720  Biso   1.000  C
  C58      1.0000 0.57010  0.55890  0.85280  Biso   1.000  C
  H67      1.0000 0.38570  0.38370  0.16920  Biso   1.000  H
  H68      1.0000 0.61430  0.61630  0.83080  Biso   1.000  H
  H69      1.0000 0.50940  0.42200  0.08320  Biso   1.000  H
  H70      1.0000 0.49060  0.57800  0.91680  Biso   1.000  H
  H71      1.0000 0.36180  0.50340  0.13700  Biso   1.000  H
  H72      1.0000 0.63820  0.49660  0.86300  Biso   1.000  H
  N5       1.0000 0.21770  0.51610  0.99270  Biso   1.000  N
  N6       1.0000 0.78230  0.48390  0.00730  Biso   1.000  N
  C59      1.0000 0.16380  0.55180  0.93940  Biso   1.000  C
  C60      1.0000 0.83620  0.44820  0.06060  Biso   1.000  C
  C61      1.0000 0.09340  0.59550  0.86980  Biso   1.000  C
  C62      1.0000 0.90660  0.40450  0.13020  Biso   1.000  C
  H73      1.0000 0.04380  0.54760  0.86140  Biso   1.000  H
  H74      1.0000 0.95620  0.45240  0.13860  Biso   1.000  H
  H75      1.0000 0.16220  0.60660  0.80390  Biso   1.000  H
  H76      1.0000 0.83780  0.39340  0.19610  Biso   1.000  H
  H77      1.0000 0.02640  0.66210  0.89690  Biso   1.000  H
  H78      1.0000 0.97360  0.33790  0.10310  Biso   1.000  H
