data_image0
_cell_length_a       8.01
_cell_length_b       11.542
_cell_length_c       13.09
_cell_angle_alpha    83.533
_cell_angle_beta     86.67
_cell_angle_gamma    83.22

_symmetry_space_group_name_H-M    "P 1"
_symmetry_int_tables_number       1

loop_
  _symmetry_equiv_pos_as_xyz
  'x, y, z'

loop_
  _atom_site_label
  _atom_site_occupancy
  _atom_site_fract_x
  _atom_site_fract_y
  _atom_site_fract_z
  _atom_site_thermal_displace_type
  _atom_site_B_iso_or_equiv
  _atom_site_type_symbol
  Cu1      1.0000 0.00000  0.00000  0.00000  Biso   1.000  Cu
  Cu2      1.0000 0.00000  0.50000  0.50000  Biso   1.000  Cu
  O1       1.0000 0.24660  0.01650  0.98973  Biso   1.000  O
  O2       1.0000 0.75340  0.98350  0.01027  Biso   1.000  O
  H1       1.0000 0.29940  0.98710  0.04980  Biso   1.000  H
  H2       1.0000 0.70060  0.01290  0.95020  Biso   1.000  H
  H3       1.0000 0.30870  0.96390  0.93980  Biso   1.000  H
  H4       1.0000 0.69130  0.03610  0.06020  Biso   1.000  H
  N1       1.0000 0.13570  0.65920  0.93600  Biso   1.000  N
  N2       1.0000 0.86430  0.34080  0.06400  Biso   1.000  N
  N3       1.0000 0.04480  0.84520  0.94590  Biso   1.000  N
  N4       1.0000 0.95520  0.15480  0.05410  Biso   1.000  N
  N5       1.0000 0.31720  0.35460  0.27250  Biso   1.000  N
  N6       1.0000 0.68280  0.64540  0.72750  Biso   1.000  N
  N7       1.0000 0.12890  0.40620  0.39410  Biso   1.000  N
  N8       1.0000 0.87110  0.59380  0.60590  Biso   1.000  N
  N9       1.0000 0.27180  0.31120  0.73890  Biso   1.000  N
  N10      1.0000 0.72820  0.68880  0.26110  Biso   1.000  N
  N11      1.0000 0.15860  0.41500  0.60310  Biso   1.000  N
  N12      1.0000 0.84140  0.58500  0.39690  Biso   1.000  N
  C1       1.0000 0.20840  0.54230  0.96470  Biso   1.000  C
  C2       1.0000 0.79160  0.45770  0.03530  Biso   1.000  C
  C3       1.0000 0.28370  0.51250  0.05860  Biso   1.000  C
  C4       1.0000 0.71630  0.48750  0.94140  Biso   1.000  C
  H5       1.0000 0.28480  0.56970  0.10520  Biso   1.000  H
  H6       1.0000 0.71520  0.43030  0.89480  Biso   1.000  H
  C5       1.0000 0.35810  0.39750  0.08390  Biso   1.000  C
  C6       1.0000 0.64190  0.60250  0.91610  Biso   1.000  C
  C7       1.0000 0.35700  0.31460  0.01490  Biso   1.000  C
  C8       1.0000 0.64300  0.68540  0.98510  Biso   1.000  C
  H7       1.0000 0.40770  0.23670  0.03210  Biso   1.000  H
  H8       1.0000 0.59230  0.76330  0.96790  Biso   1.000  H
  C9       1.0000 0.28230  0.34490  0.92060  Biso   1.000  C
  C10      1.0000 0.71770  0.65510  0.07940  Biso   1.000  C
  C11      1.0000 0.20690  0.45780  0.89610  Biso   1.000  C
  C12      1.0000 0.79310  0.54220  0.10390  Biso   1.000  C
  H9       1.0000 0.15390  0.47820  0.83250  Biso   1.000  H
  H10      1.0000 0.84610  0.52180  0.16750  Biso   1.000  H
  C13      1.0000 0.11890  0.74970  0.99490  Biso   1.000  C
  C14      1.0000 0.88110  0.25030  0.00510  Biso   1.000  C
  H11      1.0000 0.15620  0.74440  0.06300  Biso   1.000  H
  H12      1.0000 0.84380  0.25560  0.93700  Biso   1.000  H
  C15      1.0000 0.01030  0.81740  0.85120  Biso   1.000  C
  C16      1.0000 0.98970  0.18260  0.14880  Biso   1.000  C
  H13      1.0000 0.95680  0.86990  0.79870  Biso   1.000  H
  H14      1.0000 0.04320  0.13010  0.20130  Biso   1.000  H
  C17      1.0000 0.06460  0.70330  0.84420  Biso   1.000  C
  C18      1.0000 0.93540  0.29670  0.15580  Biso   1.000  C
  H15      1.0000 0.05560  0.66120  0.78680  Biso   1.000  H
  H16      1.0000 0.94440  0.33880  0.21320  Biso   1.000  H
  C19      1.0000 0.44090  0.36590  0.18570  Biso   1.000  C
  C20      1.0000 0.55910  0.63410  0.81430  Biso   1.000  C
  H17      1.0000 0.51410  0.29080  0.18360  Biso   1.000  H
  H18      1.0000 0.48590  0.70920  0.81640  Biso   1.000  H
  H19      1.0000 0.51280  0.42720  0.19640  Biso   1.000  H
  H20      1.0000 0.48720  0.57280  0.80360  Biso   1.000  H
  C21      1.0000 0.23300  0.44460  0.31980  Biso   1.000  C
  C22      1.0000 0.76700  0.55540  0.68020  Biso   1.000  C
  H21      1.0000 0.24740  0.52500  0.30160  Biso   1.000  H
  H22      1.0000 0.75260  0.47500  0.69840  Biso   1.000  H
  C23      1.0000 0.14860  0.28430  0.39630  Biso   1.000  C
  C24      1.0000 0.85140  0.71570  0.60370  Biso   1.000  C
  H23      1.0000 0.09010  0.23160  0.44220  Biso   1.000  H
  H24      1.0000 0.90990  0.76840  0.55780  Biso   1.000  H
  C25      1.0000 0.26520  0.25350  0.32190  Biso   1.000  C
  C26      1.0000 0.73480  0.74650  0.67810  Biso   1.000  C
  H25      1.0000 0.30370  0.17590  0.30690  Biso   1.000  H
  H26      1.0000 0.69630  0.82410  0.69310  Biso   1.000  H
  C27      1.0000 0.28260  0.25410  0.84320  Biso   1.000  C
  C28      1.0000 0.71740  0.74590  0.15680  Biso   1.000  C
  H27      1.0000 0.38710  0.19920  0.84860  Biso   1.000  H
  H28      1.0000 0.61290  0.80080  0.15140  Biso   1.000  H
  H29      1.0000 0.18590  0.20820  0.86000  Biso   1.000  H
  H30      1.0000 0.81410  0.79180  0.14000  Biso   1.000  H
  C29      1.0000 0.12790  0.35000  0.69030  Biso   1.000  C
  C30      1.0000 0.87210  0.65000  0.30970  Biso   1.000  C
  H31      1.0000 0.01900  0.33280  0.71560  Biso   1.000  H
  H32      1.0000 0.98100  0.66720  0.28440  Biso   1.000  H
  C31      1.0000 0.32990  0.41640  0.59440  Biso   1.000  C
  C32      1.0000 0.67010  0.58360  0.40560  Biso   1.000  C
  H33      1.0000 0.38990  0.45520  0.53860  Biso   1.000  H
  H34      1.0000 0.61010  0.54480  0.46140  Biso   1.000  H
  C33      1.0000 0.40070  0.35280  0.67900  Biso   1.000  C
  C34      1.0000 0.59930  0.64720  0.32100  Biso   1.000  C
  H35      1.0000 0.51690  0.34030  0.69310  Biso   1.000  H
  H36      1.0000 0.48310  0.65970  0.30690  Biso   1.000  H
  S1       1.0000 0.20509  0.86308  0.23095  Biso   1.000  S
  S2       1.0000 0.79491  0.13692  0.76905  Biso   1.000  S
  O3       1.0000 0.34400  0.91660  0.17110  Biso   1.000  O
  O4       1.0000 0.65600  0.08340  0.82890  Biso   1.000  O
  O5       1.0000 0.04360  0.90770  0.18211  Biso   1.000  O
  O6       1.0000 0.95640  0.09230  0.81789  Biso   1.000  O
  O7       1.0000 0.20000  0.89150  0.33710  Biso   1.000  O
  O8       1.0000 0.80000  0.10850  0.66290  Biso   1.000  O
  O9       1.0000 0.23400  0.73520  0.22920  Biso   1.000  O
  O10      1.0000 0.76600  0.26480  0.77080  Biso   1.000  O
  O11      1.0000 0.19620  0.65170  0.46225  Biso   1.000  O
  O12      1.0000 0.80380  0.34830  0.53775  Biso   1.000  O
  O13      1.0000 0.42570  0.92850  0.82720  Biso   1.000  O
  O14      1.0000 0.57430  0.07150  0.17280  Biso   1.000  O
  O15      1.0000 0.49910  0.90600  0.44100  Biso   1.000  O
  O16      1.0000 0.50090  0.09400  0.55900  Biso   1.000  O
  O17      1.0000 0.21040  0.02310  0.67000  Biso   1.000  O
  O18      1.0000 0.78960  0.97690  0.33000  Biso   1.000  O
  O19      1.0000 0.66780  0.23250  0.39200  Biso   1.000  O
  O20      1.0000 0.33220  0.76750  0.60800  Biso   1.000  O
  O21      1.0000 0.04370  0.97640  0.51090  Biso   1.000  O
  O22      1.0000 0.95630  0.02360  0.48910  Biso   1.000  O
