data_image0
_cell_length_a       10.742
_cell_length_b       6.894
_cell_length_c       12.307
_cell_angle_alpha    90
_cell_angle_beta     91.102
_cell_angle_gamma    90

_symmetry_space_group_name_H-M    "P 1"
_symmetry_int_tables_number       1

loop_
  _symmetry_equiv_pos_as_xyz
  'x, y, z'

loop_
  _atom_site_label
  _atom_site_occupancy
  _atom_site_fract_x
  _atom_site_fract_y
  _atom_site_fract_z
  _atom_site_thermal_displace_type
  _atom_site_B_iso_or_equiv
  _atom_site_type_symbol
  C1       1.0000 0.49830  0.78470  0.85160  Biso   1.000  C
  C2       1.0000 0.00170  0.28470  0.64840  Biso   1.000  C
  C3       1.0000 0.50170  0.21530  0.14840  Biso   1.000  C
  C4       1.0000 0.99830  0.71530  0.35160  Biso   1.000  C
  H1       1.0000 0.56020  0.77560  0.80010  Biso   1.000  H
  H2       1.0000 0.93980  0.27560  0.69990  Biso   1.000  H
  H3       1.0000 0.43980  0.22440  0.19990  Biso   1.000  H
  H4       1.0000 0.06020  0.72440  0.30010  Biso   1.000  H
  N1       1.0000 0.52740  0.75240  0.95610  Biso   1.000  N
  N2       1.0000 0.97260  0.25240  0.54390  Biso   1.000  N
  N3       1.0000 0.47260  0.24760  0.04390  Biso   1.000  N
  N4       1.0000 0.02740  0.74760  0.45610  Biso   1.000  N
  C5       1.0000 0.31890  0.80720  0.00430  Biso   1.000  C
  C6       1.0000 0.18110  0.30720  0.49570  Biso   1.000  C
  C7       1.0000 0.68110  0.19280  0.99570  Biso   1.000  C
  C8       1.0000 0.81890  0.69280  0.50430  Biso   1.000  C
  H5       1.0000 0.25830  0.81450  0.05700  Biso   1.000  H
  H6       1.0000 0.24170  0.31450  0.44300  Biso   1.000  H
  H7       1.0000 0.74170  0.18550  0.94300  Biso   1.000  H
  H8       1.0000 0.75830  0.68550  0.55700  Biso   1.000  H
  C9       1.0000 0.28900  0.84130  0.89710  Biso   1.000  C
  C10      1.0000 0.21100  0.34130  0.60290  Biso   1.000  C
  C11      1.0000 0.71100  0.15870  0.10290  Biso   1.000  C
  C12      1.0000 0.78900  0.65870  0.39710  Biso   1.000  C
  H9       1.0000 0.20730  0.87170  0.87720  Biso   1.000  H
  H10      1.0000 0.29270  0.37170  0.62280  Biso   1.000  H
  H11      1.0000 0.79270  0.12830  0.12280  Biso   1.000  H
  H12      1.0000 0.70730  0.62830  0.37720  Biso   1.000  H
  C13      1.0000 0.37900  0.83090  0.81820  Biso   1.000  C
  C14      1.0000 0.12100  0.33090  0.68180  Biso   1.000  C
  C15      1.0000 0.62100  0.16910  0.18180  Biso   1.000  C
  C16      1.0000 0.87900  0.66910  0.31820  Biso   1.000  C
  C17      1.0000 0.34900  0.85740  0.70390  Biso   1.000  C
  C18      1.0000 0.15100  0.35740  0.79610  Biso   1.000  C
  C19      1.0000 0.65100  0.14260  0.29610  Biso   1.000  C
  C20      1.0000 0.84900  0.64260  0.20390  Biso   1.000  C
  C21      1.0000 0.68370  0.44870  0.73220  Biso   1.000  C
  C22      1.0000 0.81630  0.94870  0.76780  Biso   1.000  C
  C23      1.0000 0.31630  0.55130  0.26780  Biso   1.000  C
  C24      1.0000 0.18370  0.05130  0.23220  Biso   1.000  C
  Cu1      1.0000 0.58762  0.06411  0.62631  Biso   1.000  Cu
  Cu2      1.0000 0.91238  0.56411  0.87369  Biso   1.000  Cu
  Cu3      1.0000 0.41238  0.93589  0.37369  Biso   1.000  Cu
  Cu4      1.0000 0.08762  0.43589  0.12631  Biso   1.000  Cu
  N5       1.0000 0.77030  0.48360  0.78560  Biso   1.000  N
  N6       1.0000 0.72970  0.98360  0.71440  Biso   1.000  N
  N7       1.0000 0.22970  0.51640  0.21440  Biso   1.000  N
  N8       1.0000 0.27030  0.01640  0.28560  Biso   1.000  N
  N9       1.0000 0.42330  0.92590  0.62680  Biso   1.000  N
  N10      1.0000 0.07670  0.42590  0.87320  Biso   1.000  N
  N11      1.0000 0.57670  0.07410  0.37320  Biso   1.000  N
  N12      1.0000 0.92330  0.57410  0.12680  Biso   1.000  N
  N13      1.0000 0.35530  0.91710  0.53380  Biso   1.000  N
  N14      1.0000 0.14470  0.41710  0.96620  Biso   1.000  N
  N15      1.0000 0.64470  0.08290  0.46620  Biso   1.000  N
  N16      1.0000 0.85530  0.58290  0.03380  Biso   1.000  N
  N17      1.0000 0.24570  0.84160  0.55540  Biso   1.000  N
  N18      1.0000 0.25430  0.34160  0.94460  Biso   1.000  N
  N19      1.0000 0.75430  0.15840  0.44460  Biso   1.000  N
  N20      1.0000 0.74570  0.65840  0.05540  Biso   1.000  N
  N21      1.0000 0.23700  0.80470  0.66210  Biso   1.000  N
  N22      1.0000 0.26300  0.30470  0.83790  Biso   1.000  N
  N23      1.0000 0.76300  0.19530  0.33790  Biso   1.000  N
  N24      1.0000 0.73700  0.69530  0.16210  Biso   1.000  N
  C25      1.0000 0.43900  0.76230  0.03230  Biso   1.000  C
  C26      1.0000 0.06100  0.26230  0.46770  Biso   1.000  C
  C27      1.0000 0.56100  0.23770  0.96770  Biso   1.000  C
  C28      1.0000 0.93900  0.73770  0.53230  Biso   1.000  C
  H13      1.0000 0.46010  0.73830  0.10470  Biso   1.000  H
  H14      1.0000 0.03990  0.23830  0.39530  Biso   1.000  H
  H15      1.0000 0.53990  0.26170  0.89530  Biso   1.000  H
  H16      1.0000 0.96010  0.76170  0.60470  Biso   1.000  H
  S1       1.0000 0.55721  0.40600  0.65802  Biso   1.000  S
  S2       1.0000 0.94279  0.90600  0.84198  Biso   1.000  S
  S3       1.0000 0.44279  0.59400  0.34198  Biso   1.000  S
  S4       1.0000 0.05721  0.09400  0.15802  Biso   1.000  S
