data_image0
_cell_length_a       15.091
_cell_length_b       15.091
_cell_length_c       14.71
_cell_angle_alpha    90
_cell_angle_beta     90
_cell_angle_gamma    120

_symmetry_space_group_name_H-M    "P 1"
_symmetry_int_tables_number       1

loop_
  _symmetry_equiv_pos_as_xyz
  'x, y, z'

loop_
  _atom_site_label
  _atom_site_occupancy
  _atom_site_fract_x
  _atom_site_fract_y
  _atom_site_fract_z
  _atom_site_thermal_displace_type
  _atom_site_B_iso_or_equiv
  _atom_site_type_symbol
  Nd1      1.0000 0.66700  0.33300  0.25000  Biso   1.000  Nd
  Nd2      1.0000 0.33400  0.66700  0.25000  Biso   1.000  Nd
  Nd3      1.0000 0.66700  0.33400  0.25000  Biso   1.000  Nd
  Nd4      1.0000 0.33300  0.66700  0.25000  Biso   1.000  Nd
  Nd5      1.0000 0.66600  0.33300  0.25000  Biso   1.000  Nd
  Nd6      1.0000 0.33300  0.66600  0.25000  Biso   1.000  Nd
  Nd7      1.0000 0.33300  0.66700  0.75000  Biso   1.000  Nd
  Nd8      1.0000 0.66600  0.33300  0.75000  Biso   1.000  Nd
  Nd9      1.0000 0.33300  0.66600  0.75000  Biso   1.000  Nd
  Nd10     1.0000 0.66700  0.33300  0.75000  Biso   1.000  Nd
  Nd11     1.0000 0.33400  0.66700  0.75000  Biso   1.000  Nd
  Nd12     1.0000 0.66700  0.33400  0.75000  Biso   1.000  Nd
  Cu1      1.0000 0.50000  0.50000  0.50000  Biso   1.000  Cu
  Cu2      1.0000 0.00000  0.50000  0.50000  Biso   1.000  Cu
  Cu3      1.0000 0.50000  0.50000  0.00000  Biso   1.000  Cu
  Cu4      1.0000 0.50000  0.00000  0.50000  Biso   1.000  Cu
  Cu5      1.0000 0.00000  0.50000  0.00000  Biso   1.000  Cu
  Cu6      1.0000 0.50000  0.00000  0.00000  Biso   1.000  Cu
  O1       1.0000 0.47380  0.23700  0.25000  Biso   1.000  O
  O2       1.0000 0.23680  0.47380  0.25000  Biso   1.000  O
  O3       1.0000 0.76300  0.52620  0.25000  Biso   1.000  O
  O4       1.0000 0.76300  0.23680  0.25000  Biso   1.000  O
  O5       1.0000 0.23680  0.76300  0.25000  Biso   1.000  O
  O6       1.0000 0.52620  0.76300  0.25000  Biso   1.000  O
  O7       1.0000 0.52620  0.76300  0.75000  Biso   1.000  O
  O8       1.0000 0.76320  0.52620  0.75000  Biso   1.000  O
  O9       1.0000 0.23700  0.47380  0.75000  Biso   1.000  O
  O10      1.0000 0.23700  0.76320  0.75000  Biso   1.000  O
  O11      1.0000 0.76320  0.23700  0.75000  Biso   1.000  O
  O12      1.0000 0.47380  0.23700  0.75000  Biso   1.000  O
  O13      1.0000 0.57850  0.38490  0.35920  Biso   1.000  O
  O14      1.0000 0.19360  0.57850  0.35920  Biso   1.000  O
  O15      1.0000 0.61510  0.42150  0.14080  Biso   1.000  O
  O16      1.0000 0.61510  0.19360  0.35920  Biso   1.000  O
  O17      1.0000 0.19360  0.61510  0.14080  Biso   1.000  O
  O18      1.0000 0.42150  0.61510  0.35920  Biso   1.000  O
  O19      1.0000 0.57850  0.19360  0.14080  Biso   1.000  O
  O20      1.0000 0.80640  0.42150  0.35920  Biso   1.000  O
  O21      1.0000 0.38490  0.57850  0.14080  Biso   1.000  O
  O22      1.0000 0.38490  0.80640  0.35920  Biso   1.000  O
  O23      1.0000 0.80640  0.38490  0.14080  Biso   1.000  O
  O24      1.0000 0.42150  0.80640  0.14080  Biso   1.000  O
  O25      1.0000 0.42150  0.61510  0.64080  Biso   1.000  O
  O26      1.0000 0.80640  0.42150  0.64080  Biso   1.000  O
  O27      1.0000 0.38490  0.57850  0.85920  Biso   1.000  O
  O28      1.0000 0.38490  0.80640  0.64080  Biso   1.000  O
  O29      1.0000 0.80640  0.38490  0.85920  Biso   1.000  O
  O30      1.0000 0.57850  0.38490  0.64080  Biso   1.000  O
  O31      1.0000 0.42150  0.80640  0.85920  Biso   1.000  O
  O32      1.0000 0.19360  0.57850  0.64080  Biso   1.000  O
  O33      1.0000 0.61510  0.42150  0.85920  Biso   1.000  O
  O34      1.0000 0.61510  0.19360  0.64080  Biso   1.000  O
  O35      1.0000 0.19360  0.61510  0.85920  Biso   1.000  O
  O36      1.0000 0.57850  0.19360  0.85920  Biso   1.000  O
  O37      1.0000 0.44320  0.39350  0.40750  Biso   1.000  O
  O38      1.0000 0.04970  0.44320  0.40750  Biso   1.000  O
  O39      1.0000 0.60650  0.55680  0.09250  Biso   1.000  O
  O40      1.0000 0.60650  0.04970  0.40750  Biso   1.000  O
  O41      1.0000 0.04970  0.60650  0.09250  Biso   1.000  O
  O42      1.0000 0.55680  0.60650  0.40750  Biso   1.000  O
  O43      1.0000 0.44320  0.04970  0.09250  Biso   1.000  O
  O44      1.0000 0.95030  0.55680  0.40750  Biso   1.000  O
  O45      1.0000 0.39350  0.44320  0.09250  Biso   1.000  O
  O46      1.0000 0.39350  0.95030  0.40750  Biso   1.000  O
  O47      1.0000 0.95030  0.39350  0.09250  Biso   1.000  O
  O48      1.0000 0.55680  0.95030  0.09250  Biso   1.000  O
  O49      1.0000 0.55680  0.60650  0.59250  Biso   1.000  O
  O50      1.0000 0.95030  0.55680  0.59250  Biso   1.000  O
  O51      1.0000 0.39350  0.44320  0.90750  Biso   1.000  O
  O52      1.0000 0.39350  0.95030  0.59250  Biso   1.000  O
  O53      1.0000 0.95030  0.39350  0.90750  Biso   1.000  O
  O54      1.0000 0.44320  0.39350  0.59250  Biso   1.000  O
  O55      1.0000 0.55680  0.95030  0.90750  Biso   1.000  O
  O56      1.0000 0.04970  0.44320  0.59250  Biso   1.000  O
  O57      1.0000 0.60650  0.55680  0.90750  Biso   1.000  O
  O58      1.0000 0.60650  0.04970  0.59250  Biso   1.000  O
  O59      1.0000 0.04970  0.60650  0.90750  Biso   1.000  O
  O60      1.0000 0.44320  0.04970  0.90750  Biso   1.000  O
  O61      1.0000 0.32360  0.47900  0.50000  Biso   1.000  O
  O62      1.0000 0.84460  0.32360  0.50000  Biso   1.000  O
  O63      1.0000 0.52100  0.67640  0.00000  Biso   1.000  O
  O64      1.0000 0.52100  0.84460  0.50000  Biso   1.000  O
  O65      1.0000 0.84460  0.52100  0.00000  Biso   1.000  O
  O66      1.0000 0.67640  0.52100  0.50000  Biso   1.000  O
  O67      1.0000 0.32360  0.84460  0.00000  Biso   1.000  O
  O68      1.0000 0.15540  0.67640  0.50000  Biso   1.000  O
  O69      1.0000 0.47900  0.32360  0.00000  Biso   1.000  O
  O70      1.0000 0.47900  0.15540  0.50000  Biso   1.000  O
  O71      1.0000 0.15540  0.47900  0.00000  Biso   1.000  O
  O72      1.0000 0.67640  0.15540  0.00000  Biso   1.000  O
  C1       1.0000 0.41300  0.26860  0.29900  Biso   1.000  C
  C2       1.0000 0.14440  0.41300  0.29900  Biso   1.000  C
  C3       1.0000 0.73140  0.58700  0.20100  Biso   1.000  C
  C4       1.0000 0.73140  0.14440  0.29900  Biso   1.000  C
  C5       1.0000 0.14440  0.73140  0.20100  Biso   1.000  C
  C6       1.0000 0.58700  0.73140  0.29900  Biso   1.000  C
  C7       1.0000 0.41300  0.14440  0.20100  Biso   1.000  C
  C8       1.0000 0.85560  0.58700  0.29900  Biso   1.000  C
  C9       1.0000 0.26860  0.41300  0.20100  Biso   1.000  C
  C10      1.0000 0.26860  0.85560  0.29900  Biso   1.000  C
  C11      1.0000 0.85560  0.26860  0.20100  Biso   1.000  C
  C12      1.0000 0.58700  0.85560  0.20100  Biso   1.000  C
  C13      1.0000 0.58700  0.73140  0.70100  Biso   1.000  C
  C14      1.0000 0.85560  0.58700  0.70100  Biso   1.000  C
  C15      1.0000 0.26860  0.41300  0.79900  Biso   1.000  C
  C16      1.0000 0.26860  0.85560  0.70100  Biso   1.000  C
  C17      1.0000 0.85560  0.26860  0.79900  Biso   1.000  C
  C18      1.0000 0.41300  0.26860  0.70100  Biso   1.000  C
  C19      1.0000 0.58700  0.85560  0.79900  Biso   1.000  C
  C20      1.0000 0.14440  0.41300  0.70100  Biso   1.000  C
  C21      1.0000 0.73140  0.58700  0.79900  Biso   1.000  C
  C22      1.0000 0.73140  0.14440  0.70100  Biso   1.000  C
  C23      1.0000 0.14440  0.73140  0.79900  Biso   1.000  C
  C24      1.0000 0.41300  0.14440  0.79900  Biso   1.000  C
  C25      1.0000 0.48520  0.35690  0.35940  Biso   1.000  C
  C26      1.0000 0.12830  0.48520  0.35940  Biso   1.000  C
  C27      1.0000 0.64310  0.51480  0.14060  Biso   1.000  C
  C28      1.0000 0.64310  0.12830  0.35940  Biso   1.000  C
  C29      1.0000 0.12830  0.64310  0.14060  Biso   1.000  C
  C30      1.0000 0.51480  0.64310  0.35940  Biso   1.000  C
  C31      1.0000 0.48520  0.12830  0.14060  Biso   1.000  C
  C32      1.0000 0.87170  0.51480  0.35940  Biso   1.000  C
  C33      1.0000 0.35690  0.48520  0.14060  Biso   1.000  C
  C34      1.0000 0.35690  0.87170  0.35940  Biso   1.000  C
  C35      1.0000 0.87170  0.35690  0.14060  Biso   1.000  C
  C36      1.0000 0.51480  0.87170  0.14060  Biso   1.000  C
  C37      1.0000 0.51480  0.64310  0.64060  Biso   1.000  C
  C38      1.0000 0.87170  0.51480  0.64060  Biso   1.000  C
  C39      1.0000 0.35690  0.48520  0.85940  Biso   1.000  C
  C40      1.0000 0.35690  0.87170  0.64060  Biso   1.000  C
  C41      1.0000 0.87170  0.35690  0.85940  Biso   1.000  C
  C42      1.0000 0.48520  0.35690  0.64060  Biso   1.000  C
  C43      1.0000 0.51480  0.87170  0.85940  Biso   1.000  C
  C44      1.0000 0.12830  0.48520  0.64060  Biso   1.000  C
  C45      1.0000 0.64310  0.51480  0.85940  Biso   1.000  C
  C46      1.0000 0.64310  0.12830  0.64060  Biso   1.000  C
  C47      1.0000 0.12830  0.64310  0.85940  Biso   1.000  C
  C48      1.0000 0.48520  0.12830  0.85940  Biso   1.000  C
  O73      1.0000 0.72500  0.80500  0.00000  Biso   1.000  O
  O74      1.0000 0.92000  0.72500  0.00000  Biso   1.000  O
  O75      1.0000 0.19500  0.27500  0.50000  Biso   1.000  O
  O76      1.0000 0.19500  0.92000  0.00000  Biso   1.000  O
  O77      1.0000 0.92000  0.19500  0.50000  Biso   1.000  O
  O78      1.0000 0.27500  0.19500  0.00000  Biso   1.000  O
  O79      1.0000 0.72500  0.92000  0.50000  Biso   1.000  O
  O80      1.0000 0.08000  0.27500  0.00000  Biso   1.000  O
  O81      1.0000 0.80500  0.72500  0.50000  Biso   1.000  O
  O82      1.0000 0.80500  0.08000  0.00000  Biso   1.000  O
  O83      1.0000 0.08000  0.80500  0.50000  Biso   1.000  O
  O84      1.0000 0.27500  0.08000  0.50000  Biso   1.000  O
