data_image0
_cell_length_a       22.2866
_cell_length_b       22.2866
_cell_length_c       12.8164
_cell_angle_alpha    90
_cell_angle_beta     90
_cell_angle_gamma    120

_symmetry_space_group_name_H-M    "P 1"
_symmetry_int_tables_number       1

loop_
  _symmetry_equiv_pos_as_xyz
  'x, y, z'

loop_
  _atom_site_label
  _atom_site_occupancy
  _atom_site_fract_x
  _atom_site_fract_y
  _atom_site_fract_z
  _atom_site_thermal_displace_type
  _atom_site_B_iso_or_equiv
  _atom_site_type_symbol
  C1       1.0000 0.19560  0.48030  0.94760  Biso   1.000  C
  C2       1.0000 0.71530  0.19560  0.44760  Biso   1.000  C
  C3       1.0000 0.51970  0.71530  0.94760  Biso   1.000  C
  C4       1.0000 0.80440  0.51970  0.44760  Biso   1.000  C
  C5       1.0000 0.28470  0.80440  0.94760  Biso   1.000  C
  C6       1.0000 0.48030  0.28470  0.44760  Biso   1.000  C
  C7       1.0000 0.71530  0.51970  0.55240  Biso   1.000  C
  C8       1.0000 0.19560  0.71530  0.05240  Biso   1.000  C
  C9       1.0000 0.48030  0.19560  0.55240  Biso   1.000  C
  C10      1.0000 0.28470  0.48030  0.05240  Biso   1.000  C
  C11      1.0000 0.80440  0.28470  0.55240  Biso   1.000  C
  C12      1.0000 0.51970  0.80440  0.05240  Biso   1.000  C
  C13      1.0000 0.80440  0.51970  0.05240  Biso   1.000  C
  C14      1.0000 0.28470  0.80440  0.55240  Biso   1.000  C
  C15      1.0000 0.48030  0.28470  0.05240  Biso   1.000  C
  C16      1.0000 0.19560  0.48030  0.55240  Biso   1.000  C
  C17      1.0000 0.71530  0.19560  0.05240  Biso   1.000  C
  C18      1.0000 0.51970  0.71530  0.55240  Biso   1.000  C
  C19      1.0000 0.28470  0.48030  0.44760  Biso   1.000  C
  C20      1.0000 0.80440  0.28470  0.94760  Biso   1.000  C
  C21      1.0000 0.51970  0.80440  0.44760  Biso   1.000  C
  C22      1.0000 0.71530  0.51970  0.94760  Biso   1.000  C
  C23      1.0000 0.19560  0.71530  0.44760  Biso   1.000  C
  C24      1.0000 0.48030  0.19560  0.94760  Biso   1.000  C
  C25      1.0000 0.09570  0.37200  0.88250  Biso   1.000  C
  C26      1.0000 0.72370  0.09570  0.38250  Biso   1.000  C
  C27      1.0000 0.62800  0.72370  0.88250  Biso   1.000  C
  C28      1.0000 0.90430  0.62800  0.38250  Biso   1.000  C
  C29      1.0000 0.27630  0.90430  0.88250  Biso   1.000  C
  C30      1.0000 0.37200  0.27630  0.38250  Biso   1.000  C
  C31      1.0000 0.72370  0.62800  0.61750  Biso   1.000  C
  C32      1.0000 0.09570  0.72370  0.11750  Biso   1.000  C
  C33      1.0000 0.37200  0.09570  0.61750  Biso   1.000  C
  C34      1.0000 0.27630  0.37200  0.11750  Biso   1.000  C
  C35      1.0000 0.90430  0.27630  0.61750  Biso   1.000  C
  C36      1.0000 0.62800  0.90430  0.11750  Biso   1.000  C
  C37      1.0000 0.90430  0.62800  0.11750  Biso   1.000  C
  C38      1.0000 0.27630  0.90430  0.61750  Biso   1.000  C
  C39      1.0000 0.37200  0.27630  0.11750  Biso   1.000  C
  C40      1.0000 0.09570  0.37200  0.61750  Biso   1.000  C
  C41      1.0000 0.72370  0.09570  0.11750  Biso   1.000  C
  C42      1.0000 0.62800  0.72370  0.61750  Biso   1.000  C
  C43      1.0000 0.27630  0.37200  0.38250  Biso   1.000  C
  C44      1.0000 0.90430  0.27630  0.88250  Biso   1.000  C
  C45      1.0000 0.62800  0.90430  0.38250  Biso   1.000  C
  C46      1.0000 0.72370  0.62800  0.88250  Biso   1.000  C
  C47      1.0000 0.09570  0.72370  0.38250  Biso   1.000  C
  C48      1.0000 0.37200  0.09570  0.88250  Biso   1.000  C
  C49      1.0000 0.15960  0.40770  0.94680  Biso   1.000  C
  C50      1.0000 0.75190  0.15960  0.44680  Biso   1.000  C
  C51      1.0000 0.59230  0.75190  0.94680  Biso   1.000  C
  C52      1.0000 0.84040  0.59230  0.44680  Biso   1.000  C
  C53      1.0000 0.24810  0.84040  0.94680  Biso   1.000  C
  C54      1.0000 0.40770  0.24810  0.44680  Biso   1.000  C
  C55      1.0000 0.75190  0.59230  0.55320  Biso   1.000  C
  C56      1.0000 0.15960  0.75190  0.05320  Biso   1.000  C
  C57      1.0000 0.40770  0.15960  0.55320  Biso   1.000  C
  C58      1.0000 0.24810  0.40770  0.05320  Biso   1.000  C
  C59      1.0000 0.84040  0.24810  0.55320  Biso   1.000  C
  C60      1.0000 0.59230  0.84040  0.05320  Biso   1.000  C
  C61      1.0000 0.84040  0.59230  0.05320  Biso   1.000  C
  C62      1.0000 0.24810  0.84040  0.55320  Biso   1.000  C
  C63      1.0000 0.40770  0.24810  0.05320  Biso   1.000  C
  C64      1.0000 0.15960  0.40770  0.55320  Biso   1.000  C
  C65      1.0000 0.75190  0.15960  0.05320  Biso   1.000  C
  C66      1.0000 0.59230  0.75190  0.55320  Biso   1.000  C
  C67      1.0000 0.24810  0.40770  0.44680  Biso   1.000  C
  C68      1.0000 0.84040  0.24810  0.94680  Biso   1.000  C
  C69      1.0000 0.59230  0.84040  0.44680  Biso   1.000  C
  C70      1.0000 0.75190  0.59230  0.94680  Biso   1.000  C
  C71      1.0000 0.15960  0.75190  0.44680  Biso   1.000  C
  C72      1.0000 0.40770  0.15960  0.94680  Biso   1.000  C
  O1       1.0000 0.07340  0.30900  0.85770  Biso   1.000  O
  O2       1.0000 0.76440  0.07340  0.35770  Biso   1.000  O
  O3       1.0000 0.69100  0.76440  0.85770  Biso   1.000  O
  O4       1.0000 0.92660  0.69100  0.35770  Biso   1.000  O
  O5       1.0000 0.23560  0.92660  0.85770  Biso   1.000  O
  O6       1.0000 0.30900  0.23560  0.35770  Biso   1.000  O
  O7       1.0000 0.76440  0.69100  0.64230  Biso   1.000  O
  O8       1.0000 0.07340  0.76440  0.14230  Biso   1.000  O
  O9       1.0000 0.30900  0.07340  0.64230  Biso   1.000  O
  O10      1.0000 0.23560  0.30900  0.14230  Biso   1.000  O
  O11      1.0000 0.92660  0.23560  0.64230  Biso   1.000  O
  O12      1.0000 0.69100  0.92660  0.14230  Biso   1.000  O
  O13      1.0000 0.92660  0.69100  0.14230  Biso   1.000  O
  O14      1.0000 0.23560  0.92660  0.64230  Biso   1.000  O
  O15      1.0000 0.30900  0.23560  0.14230  Biso   1.000  O
  O16      1.0000 0.07340  0.30900  0.64230  Biso   1.000  O
  O17      1.0000 0.76440  0.07340  0.14230  Biso   1.000  O
  O18      1.0000 0.69100  0.76440  0.64230  Biso   1.000  O
  O19      1.0000 0.23560  0.30900  0.35770  Biso   1.000  O
  O20      1.0000 0.92660  0.23560  0.85770  Biso   1.000  O
  O21      1.0000 0.69100  0.92660  0.35770  Biso   1.000  O
  O22      1.0000 0.76440  0.69100  0.85770  Biso   1.000  O
  O23      1.0000 0.07340  0.76440  0.35770  Biso   1.000  O
  O24      1.0000 0.30900  0.07340  0.85770  Biso   1.000  O
  O25      1.0000 0.07080  0.41050  0.85500  Biso   1.000  O
  O26      1.0000 0.66030  0.07080  0.35500  Biso   1.000  O
  O27      1.0000 0.58950  0.66030  0.85500  Biso   1.000  O
  O28      1.0000 0.92920  0.58950  0.35500  Biso   1.000  O
  O29      1.0000 0.33970  0.92920  0.85500  Biso   1.000  O
  O30      1.0000 0.41050  0.33970  0.35500  Biso   1.000  O
  O31      1.0000 0.66030  0.58950  0.64500  Biso   1.000  O
  O32      1.0000 0.07080  0.66030  0.14500  Biso   1.000  O
  O33      1.0000 0.41050  0.07080  0.64500  Biso   1.000  O
  O34      1.0000 0.33970  0.41050  0.14500  Biso   1.000  O
  O35      1.0000 0.92920  0.33970  0.64500  Biso   1.000  O
  O36      1.0000 0.58950  0.92920  0.14500  Biso   1.000  O
  O37      1.0000 0.92920  0.58950  0.14500  Biso   1.000  O
  O38      1.0000 0.33970  0.92920  0.64500  Biso   1.000  O
  O39      1.0000 0.41050  0.33970  0.14500  Biso   1.000  O
  O40      1.0000 0.07080  0.41050  0.64500  Biso   1.000  O
  O41      1.0000 0.66030  0.07080  0.14500  Biso   1.000  O
  O42      1.0000 0.58950  0.66030  0.64500  Biso   1.000  O
  O43      1.0000 0.33970  0.41050  0.35500  Biso   1.000  O
  O44      1.0000 0.92920  0.33970  0.85500  Biso   1.000  O
  O45      1.0000 0.58950  0.92920  0.35500  Biso   1.000  O
  O46      1.0000 0.66030  0.58950  0.85500  Biso   1.000  O
  O47      1.0000 0.07080  0.66030  0.35500  Biso   1.000  O
  O48      1.0000 0.41050  0.07080  0.85500  Biso   1.000  O
  H1       1.0000 0.17410  0.50720  0.90400  Biso   1.000  H
  H2       1.0000 0.66690  0.17410  0.40400  Biso   1.000  H
  H3       1.0000 0.49280  0.66690  0.90400  Biso   1.000  H
  H4       1.0000 0.82590  0.49280  0.40400  Biso   1.000  H
  H5       1.0000 0.33310  0.82590  0.90400  Biso   1.000  H
  H6       1.0000 0.50720  0.33310  0.40400  Biso   1.000  H
  H7       1.0000 0.66690  0.49280  0.59600  Biso   1.000  H
  H8       1.0000 0.17410  0.66690  0.09600  Biso   1.000  H
  H9       1.0000 0.50720  0.17410  0.59600  Biso   1.000  H
  H10      1.0000 0.33310  0.50720  0.09600  Biso   1.000  H
  H11      1.0000 0.82590  0.33310  0.59600  Biso   1.000  H
  H12      1.0000 0.49280  0.82590  0.09600  Biso   1.000  H
  H13      1.0000 0.82590  0.49280  0.09600  Biso   1.000  H
  H14      1.0000 0.33310  0.82590  0.59600  Biso   1.000  H
  H15      1.0000 0.50720  0.33310  0.09600  Biso   1.000  H
  H16      1.0000 0.17410  0.50720  0.59600  Biso   1.000  H
  H17      1.0000 0.66690  0.17410  0.09600  Biso   1.000  H
  H18      1.0000 0.49280  0.66690  0.59600  Biso   1.000  H
  H19      1.0000 0.33310  0.50720  0.40400  Biso   1.000  H
  H20      1.0000 0.82590  0.33310  0.90400  Biso   1.000  H
  H21      1.0000 0.49280  0.82590  0.40400  Biso   1.000  H
  H22      1.0000 0.66690  0.49280  0.90400  Biso   1.000  H
  H23      1.0000 0.17410  0.66690  0.40400  Biso   1.000  H
  H24      1.0000 0.50720  0.17410  0.90400  Biso   1.000  H
  Cu1      1.0000 0.00000  0.37910  0.75000  Biso   1.000  Cu
  Cu2      1.0000 0.62090  0.00000  0.25000  Biso   1.000  Cu
  Cu3      1.0000 0.62090  0.62090  0.75000  Biso   1.000  Cu
  Cu4      1.0000 0.00000  0.62090  0.25000  Biso   1.000  Cu
  Cu5      1.0000 0.37910  0.00000  0.75000  Biso   1.000  Cu
  Cu6      1.0000 0.37910  0.37910  0.25000  Biso   1.000  Cu
  Cu7      1.0000 0.00000  0.26870  0.75000  Biso   1.000  Cu
  Cu8      1.0000 0.73130  0.00000  0.25000  Biso   1.000  Cu
  Cu9      1.0000 0.73130  0.73130  0.75000  Biso   1.000  Cu
  Cu10     1.0000 0.00000  0.73130  0.25000  Biso   1.000  Cu
  Cu11     1.0000 0.26870  0.00000  0.75000  Biso   1.000  Cu
  Cu12     1.0000 0.26870  0.26870  0.25000  Biso   1.000  Cu
  C73      1.0000 0.29690  0.59380  0.00000  Biso   1.000  C
  C74      1.0000 0.70310  0.29690  0.50000  Biso   1.000  C
  C75      1.0000 0.40620  0.70310  0.00000  Biso   1.000  C
  C76      1.0000 0.70310  0.40620  0.50000  Biso   1.000  C
  C77      1.0000 0.29690  0.70310  0.00000  Biso   1.000  C
  C78      1.0000 0.59380  0.29690  0.50000  Biso   1.000  C
  C79      1.0000 0.70310  0.40620  0.00000  Biso   1.000  C
  C80      1.0000 0.29690  0.70310  0.50000  Biso   1.000  C
  C81      1.0000 0.59380  0.29690  0.00000  Biso   1.000  C
  C82      1.0000 0.29690  0.59380  0.50000  Biso   1.000  C
  C83      1.0000 0.70310  0.29690  0.00000  Biso   1.000  C
  C84      1.0000 0.40620  0.70310  0.50000  Biso   1.000  C
  C85      1.0000 0.25880  0.51750  0.00000  Biso   1.000  C
  C86      1.0000 0.74130  0.25880  0.50000  Biso   1.000  C
  C87      1.0000 0.48250  0.74130  0.00000  Biso   1.000  C
  C88      1.0000 0.74120  0.48250  0.50000  Biso   1.000  C
  C89      1.0000 0.25870  0.74120  0.00000  Biso   1.000  C
  C90      1.0000 0.51750  0.25870  0.50000  Biso   1.000  C
  C91      1.0000 0.74120  0.48250  0.00000  Biso   1.000  C
  C92      1.0000 0.25870  0.74120  0.50000  Biso   1.000  C
  C93      1.0000 0.51750  0.25870  0.00000  Biso   1.000  C
  C94      1.0000 0.25880  0.51750  0.50000  Biso   1.000  C
  C95      1.0000 0.74130  0.25880  0.00000  Biso   1.000  C
  C96      1.0000 0.48250  0.74130  0.50000  Biso   1.000  C
  C97      1.0000 0.18540  0.37070  0.00000  Biso   1.000  C
  C98      1.0000 0.81470  0.18540  0.50000  Biso   1.000  C
  C99      1.0000 0.62930  0.81470  0.00000  Biso   1.000  C
  C100     1.0000 0.81460  0.62930  0.50000  Biso   1.000  C
  C101     1.0000 0.18530  0.81460  0.00000  Biso   1.000  C
  C102     1.0000 0.37070  0.18530  0.50000  Biso   1.000  C
  C103     1.0000 0.81460  0.62930  0.00000  Biso   1.000  C
  C104     1.0000 0.18530  0.81460  0.50000  Biso   1.000  C
  C105     1.0000 0.37070  0.18530  0.00000  Biso   1.000  C
  C106     1.0000 0.18540  0.37070  0.50000  Biso   1.000  C
  C107     1.0000 0.81470  0.18540  0.00000  Biso   1.000  C
  C108     1.0000 0.62930  0.81470  0.50000  Biso   1.000  C
  H25      1.0000 0.15720  0.31430  0.00000  Biso   1.000  H
  H26      1.0000 0.84290  0.15720  0.50000  Biso   1.000  H
  H27      1.0000 0.68570  0.84290  0.00000  Biso   1.000  H
  H28      1.0000 0.84280  0.68570  0.50000  Biso   1.000  H
  H29      1.0000 0.15710  0.84280  0.00000  Biso   1.000  H
  H30      1.0000 0.31430  0.15710  0.50000  Biso   1.000  H
  H31      1.0000 0.84280  0.68570  0.00000  Biso   1.000  H
  H32      1.0000 0.15710  0.84280  0.50000  Biso   1.000  H
  H33      1.0000 0.31430  0.15710  0.00000  Biso   1.000  H
  H34      1.0000 0.15720  0.31430  0.50000  Biso   1.000  H
  H35      1.0000 0.84290  0.15720  0.00000  Biso   1.000  H
  H36      1.0000 0.68570  0.84290  0.50000  Biso   1.000  H
  C109     1.0000 0.36940  0.63060  0.00000  Biso   1.000  C
  C110     1.0000 0.73880  0.36940  0.50000  Biso   1.000  C
  C111     1.0000 0.36940  0.73880  0.00000  Biso   1.000  C
  C112     1.0000 0.63060  0.36940  0.50000  Biso   1.000  C
  C113     1.0000 0.26120  0.63060  0.00000  Biso   1.000  C
  C114     1.0000 0.63060  0.26120  0.50000  Biso   1.000  C
  C115     1.0000 0.63060  0.36940  0.00000  Biso   1.000  C
  C116     1.0000 0.26120  0.63060  0.50000  Biso   1.000  C
  C117     1.0000 0.63060  0.26120  0.00000  Biso   1.000  C
  C118     1.0000 0.36940  0.63060  0.50000  Biso   1.000  C
  C119     1.0000 0.73880  0.36940  0.00000  Biso   1.000  C
  C120     1.0000 0.36940  0.73880  0.50000  Biso   1.000  C
  H37      1.0000 0.39770  0.60230  0.00000  Biso   1.000  H
  H38      1.0000 0.79540  0.39770  0.50000  Biso   1.000  H
  H39      1.0000 0.39770  0.79540  0.00000  Biso   1.000  H
  H40      1.0000 0.60230  0.39770  0.50000  Biso   1.000  H
  H41      1.0000 0.20460  0.60230  0.00000  Biso   1.000  H
  H42      1.0000 0.60230  0.20460  0.50000  Biso   1.000  H
  H43      1.0000 0.60230  0.39770  0.00000  Biso   1.000  H
  H44      1.0000 0.20460  0.60230  0.50000  Biso   1.000  H
  H45      1.0000 0.60230  0.20460  0.00000  Biso   1.000  H
  H46      1.0000 0.39770  0.60230  0.50000  Biso   1.000  H
  H47      1.0000 0.79540  0.39770  0.00000  Biso   1.000  H
  H48      1.0000 0.39770  0.79540  0.50000  Biso   1.000  H
