data_image0
_cell_length_a       7.686
_cell_length_b       9.243
_cell_length_c       12.56
_cell_angle_alpha    95.27
_cell_angle_beta     98.43
_cell_angle_gamma    101.91

_symmetry_space_group_name_H-M    "P 1"
_symmetry_int_tables_number       1

loop_
  _symmetry_equiv_pos_as_xyz
  'x, y, z'

loop_
  _atom_site_label
  _atom_site_occupancy
  _atom_site_fract_x
  _atom_site_fract_y
  _atom_site_fract_z
  _atom_site_thermal_displace_type
  _atom_site_B_iso_or_equiv
  _atom_site_type_symbol
  Cu1      1.0000 0.64595  0.89865  0.94602  Biso   1.000  Cu
  Cu2      1.0000 0.35405  0.10135  0.05398  Biso   1.000  Cu
  C1       1.0000 0.86910  0.69410  0.85160  Biso   1.000  C
  C2       1.0000 0.13090  0.30590  0.14840  Biso   1.000  C
  C3       1.0000 0.93930  0.59620  0.93000  Biso   1.000  C
  C4       1.0000 0.06070  0.40380  0.07000  Biso   1.000  C
  C5       1.0000 0.82920  0.45820  0.93870  Biso   1.000  C
  C6       1.0000 0.17080  0.54180  0.06130  Biso   1.000  C
  H1       1.0000 0.71410  0.43020  0.89740  Biso   1.000  H
  H2       1.0000 0.28590  0.56980  0.10260  Biso   1.000  H
  C7       1.0000 0.88790  0.36220  0.00760  Biso   1.000  C
  C8       1.0000 0.11210  0.63780  0.99240  Biso   1.000  C
  C9       1.0000 0.76040  0.21440  0.01040  Biso   1.000  C
  C10      1.0000 0.23960  0.78560  0.98960  Biso   1.000  C
  C11      1.0000 0.40520  0.83400  0.74310  Biso   1.000  C
  C12      1.0000 0.59480  0.16600  0.25690  Biso   1.000  C
  H3       1.0000 0.38170  0.74280  0.77000  Biso   1.000  H
  H4       1.0000 0.61830  0.25720  0.23000  Biso   1.000  H
  C13      1.0000 0.31100  0.84610  0.64390  Biso   1.000  C
  C14      1.0000 0.68900  0.15390  0.35610  Biso   1.000  C
  H5       1.0000 0.22600  0.76460  0.60550  Biso   1.000  H
  H6       1.0000 0.77400  0.23540  0.39450  Biso   1.000  H
  C15      1.0000 0.34330  0.98100  0.60110  Biso   1.000  C
  C16      1.0000 0.65670  0.01900  0.39890  Biso   1.000  C
  C17      1.0000 0.47480  0.09780  0.66210  Biso   1.000  C
  C18      1.0000 0.52520  0.90220  0.33790  Biso   1.000  C
  H7       1.0000 0.50280  0.18940  0.63620  Biso   1.000  H
  H8       1.0000 0.49720  0.81060  0.36380  Biso   1.000  H
  C19      1.0000 0.56270  0.07620  0.76080  Biso   1.000  C
  C20      1.0000 0.43730  0.92380  0.23920  Biso   1.000  C
  H9       1.0000 0.64990  0.15530  0.80040  Biso   1.000  H
  H10      1.0000 0.35010  0.84470  0.19960  Biso   1.000  H
  C21      1.0000 0.24140  0.99390  0.49560  Biso   1.000  C
  C22      1.0000 0.75860  0.00610  0.50440  Biso   1.000  C
  C23      1.0000 0.06020  0.93130  0.34790  Biso   1.000  C
  C24      1.0000 0.93980  0.06870  0.65210  Biso   1.000  C
  C25      1.0000 0.92700  0.84290  0.25650  Biso   1.000  C
  C26      1.0000 0.07300  0.15710  0.74350  Biso   1.000  C
  C27      1.0000 0.85530  0.69400  0.26320  Biso   1.000  C
  C28      1.0000 0.14470  0.30600  0.73680  Biso   1.000  C
  H11      1.0000 0.89310  0.65020  0.32370  Biso   1.000  H
  H12      1.0000 0.10690  0.34980  0.67630  Biso   1.000  H
  C29      1.0000 0.72840  0.61230  0.17970  Biso   1.000  C
  C30      1.0000 0.27160  0.38770  0.82030  Biso   1.000  C
  H13      1.0000 0.67910  0.51230  0.18270  Biso   1.000  H
  H14      1.0000 0.32090  0.48770  0.81730  Biso   1.000  H
  C31      1.0000 0.67490  0.67960  0.09200  Biso   1.000  C
  C32      1.0000 0.32510  0.32040  0.90800  Biso   1.000  C
  H15      1.0000 0.58900  0.62300  0.03550  Biso   1.000  H
  H16      1.0000 0.41100  0.37700  0.96450  Biso   1.000  H
  C33      1.0000 0.86720  0.90470  0.16500  Biso   1.000  C
  C34      1.0000 0.13280  0.09530  0.83500  Biso   1.000  C
  H17      1.0000 0.91550  0.00420  0.15990  Biso   1.000  H
  H18      1.0000 0.08450  0.99580  0.84010  Biso   1.000  H
  N1       1.0000 0.52910  0.94640  0.80320  Biso   1.000  N
  N2       1.0000 0.47090  0.05360  0.19680  Biso   1.000  N
  N3       1.0000 0.12420  0.87450  0.43470  Biso   1.000  N
  N4       1.0000 0.87580  0.12550  0.56530  Biso   1.000  N
  N5       1.0000 0.25340  0.12120  0.45150  Biso   1.000  N
  N6       1.0000 0.74660  0.87880  0.54850  Biso   1.000  N
  N7       1.0000 0.13590  0.07810  0.35620  Biso   1.000  N
  N8       1.0000 0.86410  0.92190  0.64380  Biso   1.000  N
  N9       1.0000 0.74110  0.82410  0.08370  Biso   1.000  N
  N10      1.0000 0.25890  0.17590  0.91630  Biso   1.000  N
  O1       1.0000 0.71330  0.71660  0.85590  Biso   1.000  O
  O2       1.0000 0.28670  0.28340  0.14410  Biso   1.000  O
  O3       1.0000 0.96890  0.74260  0.78740  Biso   1.000  O
  O4       1.0000 0.03110  0.25740  0.21260  Biso   1.000  O
  O5       1.0000 0.60930  0.22090  0.03280  Biso   1.000  O
  O6       1.0000 0.39070  0.77910  0.96720  Biso   1.000  O
  O7       1.0000 0.81320  0.09640  0.98370  Biso   1.000  O
  O8       1.0000 0.18680  0.90360  0.01630  Biso   1.000  O
  O9       1.0000 0.67500  0.53000  0.48200  Biso   1.000  O
  O10      1.0000 0.32500  0.47000  0.51800  Biso   1.000  O
  H19      1.0000 0.14620  0.13210  0.30530  Biso   1.000  H
  H20      1.0000 0.85380  0.86790  0.69470  Biso   1.000  H
  H21      1.0000 0.70030  0.62350  0.49960  Biso   1.000  H
  H22      1.0000 0.29970  0.37650  0.50040  Biso   1.000  H
  H23      1.0000 0.56730  0.50710  0.49420  Biso   1.000  H
  H24      1.0000 0.43270  0.49290  0.50580  Biso   1.000  H
