data_image0
_cell_length_a       17.85
_cell_length_b       17.85
_cell_length_c       13.064
_cell_angle_alpha    90
_cell_angle_beta     90
_cell_angle_gamma    120

_symmetry_space_group_name_H-M    "P 1"
_symmetry_int_tables_number       1

loop_
  _symmetry_equiv_pos_as_xyz
  'x, y, z'

loop_
  _atom_site_label
  _atom_site_occupancy
  _atom_site_fract_x
  _atom_site_fract_y
  _atom_site_fract_z
  _atom_site_thermal_displace_type
  _atom_site_B_iso_or_equiv
  _atom_site_type_symbol
  Cu1      1.0000 0.58090  0.44520  0.13214  Biso   1.000  Cu
  Cu2      1.0000 0.55480  0.13570  0.13214  Biso   1.000  Cu
  Cu3      1.0000 0.86430  0.41910  0.13214  Biso   1.000  Cu
  Cu4      1.0000 0.41910  0.55480  0.63214  Biso   1.000  Cu
  Cu5      1.0000 0.44520  0.86430  0.63214  Biso   1.000  Cu
  Cu6      1.0000 0.13570  0.58090  0.63214  Biso   1.000  Cu
  Cu7      1.0000 0.57940  0.44410  0.38840  Biso   1.000  Cu
  Cu8      1.0000 0.55590  0.13530  0.38840  Biso   1.000  Cu
  Cu9      1.0000 0.86470  0.42060  0.38840  Biso   1.000  Cu
  Cu10     1.0000 0.42060  0.55590  0.88840  Biso   1.000  Cu
  Cu11     1.0000 0.44410  0.86470  0.88840  Biso   1.000  Cu
  Cu12     1.0000 0.13530  0.57940  0.88840  Biso   1.000  Cu
  Ca1      1.0000 0.66670  0.33330  0.25410  Biso   1.000  Ca
  Ca2      1.0000 0.33330  0.66670  0.75410  Biso   1.000  Ca
  O1       1.0000 0.64180  0.46610  0.25340  Biso   1.000  O
  O2       1.0000 0.53390  0.17570  0.25340  Biso   1.000  O
  O3       1.0000 0.82430  0.35820  0.25340  Biso   1.000  O
  O4       1.0000 0.35820  0.53390  0.75340  Biso   1.000  O
  O5       1.0000 0.46610  0.82430  0.75340  Biso   1.000  O
  O6       1.0000 0.17570  0.64180  0.75340  Biso   1.000  O
  O7       1.0000 0.55640  0.32170  0.13730  Biso   1.000  O
  O8       1.0000 0.67830  0.23470  0.13730  Biso   1.000  O
  O9       1.0000 0.76530  0.44360  0.13730  Biso   1.000  O
  O10      1.0000 0.44360  0.67830  0.63730  Biso   1.000  O
  O11      1.0000 0.32170  0.76530  0.63730  Biso   1.000  O
  O12      1.0000 0.23470  0.55640  0.63730  Biso   1.000  O
  O13      1.0000 0.49470  0.20000  0.03050  Biso   1.000  O
  O14      1.0000 0.80000  0.29470  0.03050  Biso   1.000  O
  O15      1.0000 0.70530  0.50530  0.03050  Biso   1.000  O
  O16      1.0000 0.50530  0.80000  0.53050  Biso   1.000  O
  O17      1.0000 0.20000  0.70530  0.53050  Biso   1.000  O
  O18      1.0000 0.29470  0.49470  0.53050  Biso   1.000  O
  O19      1.0000 0.43680  0.67460  0.89240  Biso   1.000  O
  O20      1.0000 0.32540  0.76220  0.89240  Biso   1.000  O
  O21      1.0000 0.23780  0.56320  0.89240  Biso   1.000  O
  O22      1.0000 0.56320  0.32540  0.39240  Biso   1.000  O
  O23      1.0000 0.67460  0.23780  0.39240  Biso   1.000  O
  O24      1.0000 0.76220  0.43680  0.39240  Biso   1.000  O
  O25      1.0000 0.51490  0.80500  0.96600  Biso   1.000  O
  O26      1.0000 0.19500  0.70990  0.96600  Biso   1.000  O
  O27      1.0000 0.29010  0.48510  0.96600  Biso   1.000  O
  O28      1.0000 0.48510  0.19500  0.46600  Biso   1.000  O
  O29      1.0000 0.80500  0.29010  0.46600  Biso   1.000  O
  O30      1.0000 0.70990  0.51490  0.46600  Biso   1.000  O
  O31      1.0000 0.42400  0.44620  0.90500  Biso   1.000  O
  O32      1.0000 0.55380  0.97780  0.90500  Biso   1.000  O
  O33      1.0000 0.02220  0.57600  0.90500  Biso   1.000  O
  O34      1.0000 0.57600  0.55380  0.40500  Biso   1.000  O
  O35      1.0000 0.44620  0.02220  0.40500  Biso   1.000  O
  O36      1.0000 0.97780  0.42400  0.40500  Biso   1.000  O
  O37      1.0000 0.57160  0.55600  0.11310  Biso   1.000  O
  O38      1.0000 0.44400  0.01560  0.11310  Biso   1.000  O
  O39      1.0000 0.98440  0.42840  0.11310  Biso   1.000  O
  O40      1.0000 0.42840  0.44400  0.61310  Biso   1.000  O
  O41      1.0000 0.55600  0.98440  0.61310  Biso   1.000  O
  O42      1.0000 0.01560  0.57160  0.61310  Biso   1.000  O
  N1       1.0000 0.50450  0.40470  0.01050  Biso   1.000  N
  N2       1.0000 0.59530  0.09980  0.01050  Biso   1.000  N
  N3       1.0000 0.90020  0.49550  0.01050  Biso   1.000  N
  N4       1.0000 0.49550  0.59530  0.51050  Biso   1.000  N
  N5       1.0000 0.40470  0.90020  0.51050  Biso   1.000  N
  N6       1.0000 0.09980  0.50450  0.51050  Biso   1.000  N
  N7       1.0000 0.50940  0.60200  0.98860  Biso   1.000  N
  N8       1.0000 0.39800  0.90740  0.98860  Biso   1.000  N
  N9       1.0000 0.09260  0.49060  0.98860  Biso   1.000  N
  N10      1.0000 0.49060  0.39800  0.48860  Biso   1.000  N
  N11      1.0000 0.60200  0.09260  0.48860  Biso   1.000  N
  N12      1.0000 0.90740  0.50940  0.48860  Biso   1.000  N
  C1       1.0000 0.50230  0.27080  0.06100  Biso   1.000  C
  C2       1.0000 0.72920  0.23150  0.06100  Biso   1.000  C
  C3       1.0000 0.76850  0.49770  0.06100  Biso   1.000  C
  C4       1.0000 0.49770  0.72920  0.56100  Biso   1.000  C
  C5       1.0000 0.27080  0.76850  0.56100  Biso   1.000  C
  C6       1.0000 0.23150  0.50230  0.56100  Biso   1.000  C
  C7       1.0000 0.48900  0.45800  0.99100  Biso   1.000  C
  C8       1.0000 0.54200  0.03100  0.99100  Biso   1.000  C
  C9       1.0000 0.96900  0.51100  0.99100  Biso   1.000  C
  C10      1.0000 0.51100  0.54200  0.49100  Biso   1.000  C
  C11      1.0000 0.45800  0.96900  0.49100  Biso   1.000  C
  C12      1.0000 0.03100  0.48900  0.49100  Biso   1.000  C
  C13      1.0000 0.52770  0.54510  0.03960  Biso   1.000  C
  C14      1.0000 0.45490  0.98260  0.03960  Biso   1.000  C
  C15      1.0000 0.01740  0.47230  0.03960  Biso   1.000  C
  C16      1.0000 0.47230  0.45490  0.53960  Biso   1.000  C
  C17      1.0000 0.54510  0.01740  0.53960  Biso   1.000  C
  C18      1.0000 0.98260  0.52770  0.53960  Biso   1.000  C
  C19      1.0000 0.47800  0.71400  0.96700  Biso   1.000  C
  C20      1.0000 0.28600  0.76400  0.96700  Biso   1.000  C
  C21      1.0000 0.23600  0.52200  0.96700  Biso   1.000  C
  C22      1.0000 0.52200  0.28600  0.46700  Biso   1.000  C
  C23      1.0000 0.71400  0.23600  0.46700  Biso   1.000  C
  C24      1.0000 0.76400  0.47800  0.46700  Biso   1.000  C
  C25      1.0000 0.52080  0.68300  0.03800  Biso   1.000  C
  C26      1.0000 0.31700  0.83780  0.03800  Biso   1.000  C
  C27      1.0000 0.16220  0.47920  0.03800  Biso   1.000  C
  C28      1.0000 0.47920  0.31700  0.53800  Biso   1.000  C
  C29      1.0000 0.68300  0.16220  0.53800  Biso   1.000  C
  C30      1.0000 0.83780  0.52080  0.53800  Biso   1.000  C
  H1       1.0000 0.58110  0.72650  0.05920  Biso   1.000  H
  H2       1.0000 0.27350  0.85460  0.05920  Biso   1.000  H
  H3       1.0000 0.14540  0.41890  0.05920  Biso   1.000  H
  H4       1.0000 0.41890  0.27350  0.55920  Biso   1.000  H
  H5       1.0000 0.72650  0.14540  0.55920  Biso   1.000  H
  H6       1.0000 0.85460  0.58110  0.55920  Biso   1.000  H
  C31      1.0000 0.45250  0.65420  0.12030  Biso   1.000  C
  C32      1.0000 0.34580  0.79830  0.12030  Biso   1.000  C
  C33      1.0000 0.20170  0.54750  0.12030  Biso   1.000  C
  C34      1.0000 0.54750  0.34580  0.62030  Biso   1.000  C
  C35      1.0000 0.65420  0.20170  0.62030  Biso   1.000  C
  C36      1.0000 0.79830  0.45250  0.62030  Biso   1.000  C
  H7       1.0000 0.44290  0.70360  0.10840  Biso   1.000  H
  H8       1.0000 0.29640  0.73930  0.10840  Biso   1.000  H
  H9       1.0000 0.26070  0.55710  0.10840  Biso   1.000  H
  H10      1.0000 0.55710  0.29640  0.60840  Biso   1.000  H
  H11      1.0000 0.70360  0.26070  0.60840  Biso   1.000  H
  H12      1.0000 0.73930  0.44290  0.60840  Biso   1.000  H
  H13      1.0000 0.49560  0.67530  0.17630  Biso   1.000  H
  H14      1.0000 0.32470  0.82030  0.17630  Biso   1.000  H
  H15      1.0000 0.17970  0.50440  0.17630  Biso   1.000  H
  H16      1.0000 0.50440  0.32470  0.67630  Biso   1.000  H
  H17      1.0000 0.67530  0.17970  0.67630  Biso   1.000  H
  H18      1.0000 0.82030  0.49560  0.67630  Biso   1.000  H
  C37      1.0000 0.37700  0.61000  0.19300  Biso   1.000  C
  C38      1.0000 0.39000  0.76700  0.19300  Biso   1.000  C
  C39      1.0000 0.23300  0.62300  0.19300  Biso   1.000  C
  C40      1.0000 0.62300  0.39000  0.69300  Biso   1.000  C
  C41      1.0000 0.61000  0.23300  0.69300  Biso   1.000  C
  C42      1.0000 0.76700  0.37700  0.69300  Biso   1.000  C
  H19      1.0000 0.32530  0.59190  0.14950  Biso   1.000  H
  H20      1.0000 0.40810  0.73340  0.14950  Biso   1.000  H
  H21      1.0000 0.26660  0.67470  0.14950  Biso   1.000  H
  H22      1.0000 0.67470  0.40810  0.64950  Biso   1.000  H
  H23      1.0000 0.59190  0.26660  0.64950  Biso   1.000  H
  H24      1.0000 0.73340  0.32530  0.64950  Biso   1.000  H
  H25      1.0000 0.38100  0.65770  0.23640  Biso   1.000  H
  H26      1.0000 0.34230  0.72330  0.23640  Biso   1.000  H
  H27      1.0000 0.27670  0.61900  0.23640  Biso   1.000  H
  H28      1.0000 0.61900  0.34230  0.73640  Biso   1.000  H
  H29      1.0000 0.65770  0.27670  0.73640  Biso   1.000  H
  H30      1.0000 0.72330  0.38100  0.73640  Biso   1.000  H
  C43      1.0000 0.28300  0.41600  0.21400  Biso   1.000  C
  C44      1.0000 0.58400  0.86700  0.21400  Biso   1.000  C
  C45      1.0000 0.13300  0.71700  0.21400  Biso   1.000  C
  C46      1.0000 0.71700  0.58400  0.71400  Biso   1.000  C
  C47      1.0000 0.41600  0.13300  0.71400  Biso   1.000  C
  C48      1.0000 0.86700  0.28300  0.71400  Biso   1.000  C
  H31      1.0000 0.30540  0.42320  0.14390  Biso   1.000  H
  H32      1.0000 0.57680  0.88220  0.14390  Biso   1.000  H
  H33      1.0000 0.11780  0.69460  0.14390  Biso   1.000  H
  H34      1.0000 0.69460  0.57680  0.64390  Biso   1.000  H
  H35      1.0000 0.42320  0.11780  0.64390  Biso   1.000  H
  H36      1.0000 0.88220  0.30540  0.64390  Biso   1.000  H
  H37      1.0000 0.22180  0.39990  0.21160  Biso   1.000  H
  H38      1.0000 0.60010  0.82190  0.21160  Biso   1.000  H
  H39      1.0000 0.17810  0.77820  0.21160  Biso   1.000  H
  H40      1.0000 0.77820  0.60010  0.71160  Biso   1.000  H
  H41      1.0000 0.39990  0.17810  0.71160  Biso   1.000  H
  H42      1.0000 0.82190  0.22180  0.71160  Biso   1.000  H
  H43      1.0000 0.28860  0.37030  0.24840  Biso   1.000  H
  H44      1.0000 0.62970  0.91830  0.24840  Biso   1.000  H
  H45      1.0000 0.08170  0.71140  0.24840  Biso   1.000  H
  H46      1.0000 0.71140  0.62970  0.74840  Biso   1.000  H
  H47      1.0000 0.37030  0.08170  0.74840  Biso   1.000  H
  H48      1.0000 0.91830  0.28860  0.74840  Biso   1.000  H
  S1       1.0000 0.32000  0.18170  0.20000  Biso   1.000  S
  S2       1.0000 0.81830  0.13830  0.20000  Biso   1.000  S
  S3       1.0000 0.86170  0.68000  0.20000  Biso   1.000  S
  S4       1.0000 0.68000  0.81830  0.70000  Biso   1.000  S
  S5       1.0000 0.18170  0.86170  0.70000  Biso   1.000  S
  S6       1.0000 0.13830  0.32000  0.70000  Biso   1.000  S
  C49      1.0000 0.45250  0.31110  0.00200  Biso   1.000  C
  C50      1.0000 0.68890  0.14140  0.00200  Biso   1.000  C
  C51      1.0000 0.85860  0.54750  0.00200  Biso   1.000  C
  C52      1.0000 0.54750  0.68890  0.50200  Biso   1.000  C
  C53      1.0000 0.31110  0.85860  0.50200  Biso   1.000  C
  C54      1.0000 0.14140  0.45250  0.50200  Biso   1.000  C
  H49      1.0000 0.46560  0.30330  0.93000  Biso   1.000  H
  H50      1.0000 0.69670  0.16230  0.93000  Biso   1.000  H
  H51      1.0000 0.83770  0.53440  0.93000  Biso   1.000  H
  H52      1.0000 0.53440  0.69670  0.43000  Biso   1.000  H
  H53      1.0000 0.30330  0.83770  0.43000  Biso   1.000  H
  H54      1.0000 0.16230  0.46560  0.43000  Biso   1.000  H
  C55      1.0000 0.36300  0.24500  0.00700  Biso   1.000  C
  C56      1.0000 0.75500  0.11800  0.00700  Biso   1.000  C
  C57      1.0000 0.88200  0.63700  0.00700  Biso   1.000  C
  C58      1.0000 0.63700  0.75500  0.50700  Biso   1.000  C
  C59      1.0000 0.24500  0.88200  0.50700  Biso   1.000  C
  C60      1.0000 0.11800  0.36300  0.50700  Biso   1.000  C
  H55      1.0000 0.35340  0.22550  0.93510  Biso   1.000  H
  H56      1.0000 0.77450  0.12790  0.93510  Biso   1.000  H
  H57      1.0000 0.87210  0.64660  0.93510  Biso   1.000  H
  H58      1.0000 0.64660  0.77450  0.43510  Biso   1.000  H
  H59      1.0000 0.22550  0.87210  0.43510  Biso   1.000  H
  H60      1.0000 0.12790  0.35340  0.43510  Biso   1.000  H
  H61      1.0000 0.33600  0.28210  0.01190  Biso   1.000  H
  H62      1.0000 0.71790  0.05390  0.01190  Biso   1.000  H
  H63      1.0000 0.94610  0.66400  0.01190  Biso   1.000  H
  H64      1.0000 0.66400  0.71790  0.51190  Biso   1.000  H
  H65      1.0000 0.28210  0.94610  0.51190  Biso   1.000  H
  H66      1.0000 0.05390  0.33600  0.51190  Biso   1.000  H
  C61      1.0000 0.29190  0.16370  0.05800  Biso   1.000  C
  C62      1.0000 0.83630  0.12820  0.05800  Biso   1.000  C
  C63      1.0000 0.87180  0.70810  0.05800  Biso   1.000  C
  C64      1.0000 0.70810  0.83630  0.55800  Biso   1.000  C
  C65      1.0000 0.16370  0.87180  0.55800  Biso   1.000  C
  C66      1.0000 0.12820  0.29190  0.55800  Biso   1.000  C
  H67      1.0000 0.29260  0.11170  0.03270  Biso   1.000  H
  H68      1.0000 0.88830  0.18090  0.03270  Biso   1.000  H
  H69      1.0000 0.81910  0.70740  0.03270  Biso   1.000  H
  H70      1.0000 0.70740  0.88830  0.53270  Biso   1.000  H
  H71      1.0000 0.11170  0.81910  0.53270  Biso   1.000  H
  H72      1.0000 0.18090  0.29260  0.53270  Biso   1.000  H
  H73      1.0000 0.23420  0.15680  0.04490  Biso   1.000  H
  H74      1.0000 0.84320  0.07740  0.04490  Biso   1.000  H
  H75      1.0000 0.92260  0.76580  0.04490  Biso   1.000  H
  H76      1.0000 0.76580  0.84320  0.54490  Biso   1.000  H
  H77      1.0000 0.15680  0.92260  0.54490  Biso   1.000  H
  H78      1.0000 0.07740  0.23420  0.54490  Biso   1.000  H
  C67      1.0000 0.23800  0.21900  0.17500  Biso   1.000  C
  C68      1.0000 0.78100  0.01900  0.17500  Biso   1.000  C
  C69      1.0000 0.98100  0.76200  0.17500  Biso   1.000  C
  C70      1.0000 0.76200  0.78100  0.67500  Biso   1.000  C
  C71      1.0000 0.21900  0.98100  0.67500  Biso   1.000  C
  C72      1.0000 0.01900  0.23800  0.67500  Biso   1.000  C
  H79      1.0000 0.26840  0.27980  0.15440  Biso   1.000  H
  H80      1.0000 0.72020  0.98860  0.15440  Biso   1.000  H
  H81      1.0000 0.01140  0.73160  0.15440  Biso   1.000  H
  H82      1.0000 0.73160  0.72020  0.65440  Biso   1.000  H
  H83      1.0000 0.27980  0.01140  0.65440  Biso   1.000  H
  H84      1.0000 0.98860  0.26840  0.65440  Biso   1.000  H
  H85      1.0000 0.20450  0.21190  0.23740  Biso   1.000  H
  H86      1.0000 0.78810  0.99260  0.23740  Biso   1.000  H
  H87      1.0000 0.00740  0.79550  0.23740  Biso   1.000  H
  H88      1.0000 0.79550  0.78810  0.73740  Biso   1.000  H
  H89      1.0000 0.21190  0.00740  0.73740  Biso   1.000  H
  H90      1.0000 0.99260  0.20450  0.73740  Biso   1.000  H
  H91      1.0000 0.19840  0.18380  0.12000  Biso   1.000  H
  H92      1.0000 0.81620  0.01460  0.12000  Biso   1.000  H
  H93      1.0000 0.98540  0.80160  0.12000  Biso   1.000  H
  H94      1.0000 0.80160  0.81620  0.62000  Biso   1.000  H
  H95      1.0000 0.18380  0.98540  0.62000  Biso   1.000  H
  H96      1.0000 0.01460  0.19840  0.62000  Biso   1.000  H
  S7       1.0000 0.34470  0.51790  0.28420  Biso   1.000  S
  S8       1.0000 0.48210  0.82680  0.28420  Biso   1.000  S
  S9       1.0000 0.17320  0.65530  0.28420  Biso   1.000  S
  S10      1.0000 0.65530  0.48210  0.78420  Biso   1.000  S
  S11      1.0000 0.51790  0.17320  0.78420  Biso   1.000  S
  S12      1.0000 0.82680  0.34470  0.78420  Biso   1.000  S
  Au1      1.0000 0.39540  0.35400  0.26810  Biso   1.000  Au
  Au2      1.0000 0.64600  0.04140  0.26810  Biso   1.000  Au
  Au3      1.0000 0.95860  0.60460  0.26810  Biso   1.000  Au
  Au4      1.0000 0.60460  0.64600  0.76810  Biso   1.000  Au
  Au5      1.0000 0.35400  0.95860  0.76810  Biso   1.000  Au
  Au6      1.0000 0.04140  0.39540  0.76810  Biso   1.000  Au
  Cl1      1.0000 0.32570  0.39120  0.38620  Biso   1.000  Cl
  Cl2      1.0000 0.60880  0.93450  0.38620  Biso   1.000  Cl
  Cl3      1.0000 0.06550  0.67430  0.38620  Biso   1.000  Cl
  Cl4      1.0000 0.67430  0.60880  0.88620  Biso   1.000  Cl
  Cl5      1.0000 0.39120  0.06550  0.88620  Biso   1.000  Cl
  Cl6      1.0000 0.93450  0.32570  0.88620  Biso   1.000  Cl
  O43      1.0000 0.00000  0.00000  0.23400  Biso   1.000  O
  O44      1.0000 0.00000  0.00000  0.73400  Biso   1.000  O
  Au7      1.0000 0.31410  0.02370  0.21650  Biso   1.000  Au
  Au8      1.0000 0.97630  0.29040  0.21650  Biso   1.000  Au
  Au9      1.0000 0.70960  0.68590  0.21650  Biso   1.000  Au
  Au10     1.0000 0.68590  0.97630  0.71650  Biso   1.000  Au
  Au11     1.0000 0.02370  0.70960  0.71650  Biso   1.000  Au
  Au12     1.0000 0.29040  0.31410  0.71650  Biso   1.000  Au
  Cl7      1.0000 0.25410  0.01820  0.35790  Biso   1.000  Cl
  Cl8      1.0000 0.98180  0.23590  0.35790  Biso   1.000  Cl
  Cl9      1.0000 0.76410  0.74590  0.35790  Biso   1.000  Cl
  Cl10     1.0000 0.74590  0.98180  0.85790  Biso   1.000  Cl
  Cl11     1.0000 0.01820  0.76410  0.85790  Biso   1.000  Cl
  Cl12     1.0000 0.23590  0.25410  0.85790  Biso   1.000  Cl
