data_image0
_cell_length_a       9.617
_cell_length_b       10.214
_cell_length_c       13.207
_cell_angle_alpha    110.069
_cell_angle_beta     101.127
_cell_angle_gamma    91.093

_symmetry_space_group_name_H-M    "P 1"
_symmetry_int_tables_number       1

loop_
  _symmetry_equiv_pos_as_xyz
  'x, y, z'

loop_
  _atom_site_label
  _atom_site_occupancy
  _atom_site_fract_x
  _atom_site_fract_y
  _atom_site_fract_z
  _atom_site_thermal_displace_type
  _atom_site_B_iso_or_equiv
  _atom_site_type_symbol
  Mo1      1.0000 0.26992  0.47413  0.38506  Biso   1.000  Mo
  Mo2      1.0000 0.73008  0.52587  0.61494  Biso   1.000  Mo
  Mo3      1.0000 0.61570  0.34291  0.33660  Biso   1.000  Mo
  Mo4      1.0000 0.38430  0.65709  0.66340  Biso   1.000  Mo
  Mo5      1.0000 0.88748  0.57193  0.41064  Biso   1.000  Mo
  Mo6      1.0000 0.11252  0.42807  0.58936  Biso   1.000  Mo
  Mo7      1.0000 0.98883  0.25074  0.30078  Biso   1.000  Mo
  Mo8      1.0000 0.01117  0.74926  0.69922  Biso   1.000  Mo
  Cu1      1.0000 0.29380  0.07090  0.26321  Biso   1.000  Cu
  Cu2      1.0000 0.70620  0.92910  0.73679  Biso   1.000  Cu
  Cu3      1.0000 0.71770  0.95280  0.24584  Biso   1.000  Cu
  Cu4      1.0000 0.28230  0.04720  0.75416  Biso   1.000  Cu
  O1       1.0000 0.58820  0.16230  0.29820  Biso   1.000  O
  O2       1.0000 0.41180  0.83770  0.70180  Biso   1.000  O
  O3       1.0000 0.44640  0.39900  0.38500  Biso   1.000  O
  O4       1.0000 0.55360  0.60100  0.61500  Biso   1.000  O
  O5       1.0000 0.93120  0.07980  0.27990  Biso   1.000  O
  O6       1.0000 0.06880  0.92020  0.72010  Biso   1.000  O
  O7       1.0000 0.96180  0.73220  0.50940  Biso   1.000  O
  O8       1.0000 0.03820  0.26780  0.49060  Biso   1.000  O
  O9       1.0000 0.95040  0.25970  0.17160  Biso   1.000  O
  O10      1.0000 0.04960  0.74030  0.82840  Biso   1.000  O
  O11      1.0000 0.31740  0.64430  0.48030  Biso   1.000  O
  O12      1.0000 0.68260  0.35570  0.51970  Biso   1.000  O
  O13      1.0000 0.82590  0.35020  0.35140  Biso   1.000  O
  O14      1.0000 0.17410  0.64980  0.64860  Biso   1.000  O
  O15      1.0000 0.06580  0.47330  0.40850  Biso   1.000  O
  O16      1.0000 0.93420  0.52670  0.59150  Biso   1.000  O
  O17      1.0000 0.18980  0.26310  0.32620  Biso   1.000  O
  O18      1.0000 0.81020  0.73690  0.67380  Biso   1.000  O
  O19      1.0000 0.23670  0.49690  0.26160  Biso   1.000  O
  O20      1.0000 0.76330  0.50310  0.73840  Biso   1.000  O
  O21      1.0000 0.29400  0.44420  0.56000  Biso   1.000  O
  O22      1.0000 0.70600  0.55580  0.44000  Biso   1.000  O
  O23      1.0000 0.57750  0.36590  0.21470  Biso   1.000  O
  O24      1.0000 0.42250  0.63410  0.78530  Biso   1.000  O
  O25      1.0000 0.85750  0.59640  0.28960  Biso   1.000  O
  O26      1.0000 0.14250  0.40360  0.71040  Biso   1.000  O
  N1       1.0000 0.28860  0.05910  0.11130  Biso   1.000  N
  N2       1.0000 0.71140  0.94090  0.88870  Biso   1.000  N
  N3       1.0000 0.30090  0.06900  0.90800  Biso   1.000  N
  N4       1.0000 0.69910  0.93100  0.09200  Biso   1.000  N
  N5       1.0000 0.28880  0.05930  0.61240  Biso   1.000  N
  N6       1.0000 0.71120  0.94070  0.38760  Biso   1.000  N
  N7       1.0000 0.30700  0.04400  0.40190  Biso   1.000  N
  N8       1.0000 0.69300  0.95600  0.59810  Biso   1.000  N
  C1       1.0000 0.31020  0.94780  0.03550  Biso   1.000  C
  C2       1.0000 0.68980  0.05220  0.96450  Biso   1.000  C
  C3       1.0000 0.31600  0.95440  0.93150  Biso   1.000  C
  C4       1.0000 0.68400  0.04560  0.06850  Biso   1.000  C
  H1       1.0000 0.33110  0.87340  0.87660  Biso   1.000  H
  H2       1.0000 0.66890  0.12660  0.12340  Biso   1.000  H
  C5       1.0000 0.27300  0.18460  0.98960  Biso   1.000  C
  C6       1.0000 0.72700  0.81540  0.01040  Biso   1.000  C
  C7       1.0000 0.27000  0.17560  0.08850  Biso   1.000  C
  C8       1.0000 0.73000  0.82440  0.91150  Biso   1.000  C
  H3       1.0000 0.25460  0.25550  0.14410  Biso   1.000  H
  H4       1.0000 0.74540  0.74450  0.85590  Biso   1.000  H
  C9       1.0000 0.32300  0.80900  0.05000  Biso   1.000  C
  C10      1.0000 0.67700  0.19100  0.95000  Biso   1.000  C
  H5       1.0000 0.31920  0.81960  0.12460  Biso   1.000  H
  H6       1.0000 0.68080  0.18040  0.87540  Biso   1.000  H
  H7       1.0000 0.41160  0.77490  0.03470  Biso   1.000  H
  H8       1.0000 0.58840  0.22510  0.96530  Biso   1.000  H
  H9       1.0000 0.24570  0.74350  0.00020  Biso   1.000  H
  H10      1.0000 0.75430  0.25650  0.99980  Biso   1.000  H
  C11      1.0000 0.25200  0.31600  0.96220  Biso   1.000  C
  C12      1.0000 0.74800  0.68400  0.03780  Biso   1.000  C
  H11      1.0000 0.20810  0.29160  0.88560  Biso   1.000  H
  H12      1.0000 0.79190  0.70840  0.11440  Biso   1.000  H
  H13      1.0000 0.34300  0.36800  0.97690  Biso   1.000  H
  H14      1.0000 0.65700  0.63200  0.02310  Biso   1.000  H
  H15      1.0000 0.19260  0.37340  0.00670  Biso   1.000  H
  H16      1.0000 0.80740  0.62660  0.99330  Biso   1.000  H
  C13      1.0000 0.20940  0.96310  0.52370  Biso   1.000  C
  C14      1.0000 0.79060  0.03690  0.47630  Biso   1.000  C
  H17      1.0000 0.14480  0.90160  0.53320  Biso   1.000  H
  H18      1.0000 0.85520  0.09840  0.46680  Biso   1.000  H
  C15      1.0000 0.21850  0.95010  0.41640  Biso   1.000  C
  C16      1.0000 0.78150  0.04990  0.58360  Biso   1.000  C
  C17      1.0000 0.38850  0.14040  0.49170  Biso   1.000  C
  C18      1.0000 0.61150  0.85960  0.50830  Biso   1.000  C
  H19      1.0000 0.45240  0.20250  0.48210  Biso   1.000  H
  H20      1.0000 0.54760  0.79750  0.51790  Biso   1.000  H
  C19      1.0000 0.38120  0.15140  0.59780  Biso   1.000  C
  C20      1.0000 0.61880  0.84860  0.40220  Biso   1.000  C
  C21      1.0000 0.13000  0.83900  0.32050  Biso   1.000  C
  C22      1.0000 0.87000  0.16100  0.67950  Biso   1.000  C
  H21      1.0000 0.10110  0.87330  0.26150  Biso   1.000  H
  H22      1.0000 0.89890  0.12670  0.73850  Biso   1.000  H
  H23      1.0000 0.18410  0.75990  0.29670  Biso   1.000  H
  H24      1.0000 0.81590  0.24010  0.70330  Biso   1.000  H
  H25      1.0000 0.04720  0.81010  0.34120  Biso   1.000  H
  H26      1.0000 0.95280  0.18990  0.65880  Biso   1.000  H
  C23      1.0000 0.46800  0.26300  0.69770  Biso   1.000  C
  C24      1.0000 0.53200  0.73700  0.30230  Biso   1.000  C
  H27      1.0000 0.40620  0.31130  0.74450  Biso   1.000  H
  H28      1.0000 0.59380  0.68870  0.25550  Biso   1.000  H
  H29      1.0000 0.53600  0.22050  0.73720  Biso   1.000  H
  H30      1.0000 0.46400  0.77950  0.26280  Biso   1.000  H
  H31      1.0000 0.51660  0.32760  0.67550  Biso   1.000  H
  H32      1.0000 0.48340  0.67240  0.32450  Biso   1.000  H
