data_image0
_cell_length_a       8.553
_cell_length_b       20.449
_cell_length_c       16.694
_cell_angle_alpha    90
_cell_angle_beta     96.372
_cell_angle_gamma    90

_symmetry_space_group_name_H-M    "P 1"
_symmetry_int_tables_number       1

loop_
  _symmetry_equiv_pos_as_xyz
  'x, y, z'

loop_
  _atom_site_label
  _atom_site_occupancy
  _atom_site_fract_x
  _atom_site_fract_y
  _atom_site_fract_z
  _atom_site_thermal_displace_type
  _atom_site_B_iso_or_equiv
  _atom_site_type_symbol
  Cu1      1.0000 0.00000  0.38322  0.25000  Biso   1.000  Cu
  Cu2      1.0000 0.50000  0.88322  0.25000  Biso   1.000  Cu
  Cu3      1.0000 0.00000  0.61678  0.75000  Biso   1.000  Cu
  Cu4      1.0000 0.50000  0.11678  0.75000  Biso   1.000  Cu
  S1       1.0000 0.68250  0.17153  0.15251  Biso   1.000  S
  S2       1.0000 0.18250  0.67153  0.15251  Biso   1.000  S
  S3       1.0000 0.31750  0.17153  0.34749  Biso   1.000  S
  S4       1.0000 0.81750  0.67153  0.34749  Biso   1.000  S
  S5       1.0000 0.31750  0.82847  0.84749  Biso   1.000  S
  S6       1.0000 0.81750  0.32847  0.84749  Biso   1.000  S
  S7       1.0000 0.68250  0.82847  0.65251  Biso   1.000  S
  S8       1.0000 0.18250  0.32847  0.65251  Biso   1.000  S
  S9       1.0000 0.35990  0.16205  0.05615  Biso   1.000  S
  S10      1.0000 0.85990  0.66205  0.05615  Biso   1.000  S
  S11      1.0000 0.64010  0.16205  0.44385  Biso   1.000  S
  S12      1.0000 0.14010  0.66205  0.44385  Biso   1.000  S
  S13      1.0000 0.64010  0.83795  0.94385  Biso   1.000  S
  S14      1.0000 0.14010  0.33795  0.94385  Biso   1.000  S
  S15      1.0000 0.35990  0.83795  0.55615  Biso   1.000  S
  S16      1.0000 0.85990  0.33795  0.55615  Biso   1.000  S
  N1       1.0000 0.11690  0.31640  0.19250  Biso   1.000  N
  N2       1.0000 0.61690  0.81640  0.19250  Biso   1.000  N
  N3       1.0000 0.88310  0.31640  0.30750  Biso   1.000  N
  N4       1.0000 0.38310  0.81640  0.30750  Biso   1.000  N
  N5       1.0000 0.88310  0.68360  0.80750  Biso   1.000  N
  N6       1.0000 0.38310  0.18360  0.80750  Biso   1.000  N
  N7       1.0000 0.11690  0.68360  0.69250  Biso   1.000  N
  N8       1.0000 0.61690  0.18360  0.69250  Biso   1.000  N
  N9       1.0000 0.63140  0.95820  0.20950  Biso   1.000  N
  N10      1.0000 0.13140  0.45820  0.20950  Biso   1.000  N
  N11      1.0000 0.36860  0.95820  0.29050  Biso   1.000  N
  N12      1.0000 0.86860  0.45820  0.29050  Biso   1.000  N
  N13      1.0000 0.36860  0.04180  0.79050  Biso   1.000  N
  N14      1.0000 0.86860  0.54180  0.79050  Biso   1.000  N
  N15      1.0000 0.63140  0.04180  0.70950  Biso   1.000  N
  N16      1.0000 0.13140  0.54180  0.70950  Biso   1.000  N
  C1       1.0000 0.27720  0.22280  0.10960  Biso   1.000  C
  C2       1.0000 0.77720  0.72280  0.10960  Biso   1.000  C
  C3       1.0000 0.72280  0.22280  0.39040  Biso   1.000  C
  C4       1.0000 0.22280  0.72280  0.39040  Biso   1.000  C
  C5       1.0000 0.72280  0.77720  0.89040  Biso   1.000  C
  C6       1.0000 0.22280  0.27720  0.89040  Biso   1.000  C
  C7       1.0000 0.27720  0.77720  0.60960  Biso   1.000  C
  C8       1.0000 0.77720  0.27720  0.60960  Biso   1.000  C
  C9       1.0000 0.62280  0.04120  0.10900  Biso   1.000  C
  C10      1.0000 0.12280  0.54120  0.10900  Biso   1.000  C
  C11      1.0000 0.37720  0.04120  0.39100  Biso   1.000  C
  C12      1.0000 0.87720  0.54120  0.39100  Biso   1.000  C
  C13      1.0000 0.37720  0.95880  0.89100  Biso   1.000  C
  C14      1.0000 0.87720  0.45880  0.89100  Biso   1.000  C
  C15      1.0000 0.62280  0.95880  0.60900  Biso   1.000  C
  C16      1.0000 0.12280  0.45880  0.60900  Biso   1.000  C
  H1       1.0000 0.60320  0.05270  0.05490  Biso   1.000  H
  H2       1.0000 0.10320  0.55270  0.05490  Biso   1.000  H
  H3       1.0000 0.39680  0.05270  0.44510  Biso   1.000  H
  H4       1.0000 0.89680  0.55270  0.44510  Biso   1.000  H
  H5       1.0000 0.39680  0.94730  0.94510  Biso   1.000  H
  H6       1.0000 0.89680  0.44730  0.94510  Biso   1.000  H
  H7       1.0000 0.60320  0.94730  0.55490  Biso   1.000  H
  H8       1.0000 0.10320  0.44730  0.55490  Biso   1.000  H
  C17      1.0000 0.11730  0.21770  0.11600  Biso   1.000  C
  C18      1.0000 0.61730  0.71770  0.11600  Biso   1.000  C
  C19      1.0000 0.88270  0.21770  0.38400  Biso   1.000  C
  C20      1.0000 0.38270  0.71770  0.38400  Biso   1.000  C
  C21      1.0000 0.88270  0.78230  0.88400  Biso   1.000  C
  C22      1.0000 0.38270  0.28230  0.88400  Biso   1.000  C
  C23      1.0000 0.11730  0.78230  0.61600  Biso   1.000  C
  C24      1.0000 0.61730  0.28230  0.61600  Biso   1.000  C
  H9       1.0000 0.06180  0.18180  0.09350  Biso   1.000  H
  H10      1.0000 0.56180  0.68180  0.09350  Biso   1.000  H
  H11      1.0000 0.93820  0.18180  0.40650  Biso   1.000  H
  H12      1.0000 0.43820  0.68180  0.40650  Biso   1.000  H
  H13      1.0000 0.93820  0.81820  0.90650  Biso   1.000  H
  H14      1.0000 0.43820  0.31820  0.90650  Biso   1.000  H
  H15      1.0000 0.06180  0.81820  0.59350  Biso   1.000  H
  H16      1.0000 0.56180  0.31820  0.59350  Biso   1.000  H
  C25      1.0000 0.27120  0.32080  0.18820  Biso   1.000  C
  C26      1.0000 0.77120  0.82080  0.18820  Biso   1.000  C
  C27      1.0000 0.72880  0.32080  0.31180  Biso   1.000  C
  C28      1.0000 0.22880  0.82080  0.31180  Biso   1.000  C
  C29      1.0000 0.72880  0.67920  0.81180  Biso   1.000  C
  C30      1.0000 0.22880  0.17920  0.81180  Biso   1.000  C
  C31      1.0000 0.27120  0.67920  0.68820  Biso   1.000  C
  C32      1.0000 0.77120  0.17920  0.68820  Biso   1.000  C
  H17      1.0000 0.32630  0.35570  0.21350  Biso   1.000  H
  H18      1.0000 0.82630  0.85570  0.21350  Biso   1.000  H
  H19      1.0000 0.67370  0.35570  0.28650  Biso   1.000  H
  H20      1.0000 0.17370  0.85570  0.28650  Biso   1.000  H
  H21      1.0000 0.67370  0.64430  0.78650  Biso   1.000  H
  H22      1.0000 0.17370  0.14430  0.78650  Biso   1.000  H
  H23      1.0000 0.32630  0.64430  0.71350  Biso   1.000  H
  H24      1.0000 0.82630  0.14430  0.71350  Biso   1.000  H
  C33      1.0000 0.04020  0.26470  0.15490  Biso   1.000  C
  C34      1.0000 0.54020  0.76470  0.15490  Biso   1.000  C
  C35      1.0000 0.95980  0.26470  0.34510  Biso   1.000  C
  C36      1.0000 0.45980  0.76470  0.34510  Biso   1.000  C
  C37      1.0000 0.95980  0.73530  0.84510  Biso   1.000  C
  C38      1.0000 0.45980  0.23530  0.84510  Biso   1.000  C
  C39      1.0000 0.04020  0.73530  0.65490  Biso   1.000  C
  C40      1.0000 0.54020  0.23530  0.65490  Biso   1.000  C
  H25      1.0000 0.93190  0.26120  0.15550  Biso   1.000  H
  H26      1.0000 0.43190  0.76120  0.15550  Biso   1.000  H
  H27      1.0000 0.06810  0.26120  0.34450  Biso   1.000  H
  H28      1.0000 0.56810  0.76120  0.34450  Biso   1.000  H
  H29      1.0000 0.06810  0.73880  0.84450  Biso   1.000  H
  H30      1.0000 0.56810  0.23880  0.84450  Biso   1.000  H
  H31      1.0000 0.93190  0.73880  0.65550  Biso   1.000  H
  H32      1.0000 0.43190  0.23880  0.65550  Biso   1.000  H
  C41      1.0000 0.35210  0.27570  0.14770  Biso   1.000  C
  C42      1.0000 0.85210  0.77570  0.14770  Biso   1.000  C
  C43      1.0000 0.64790  0.27570  0.35230  Biso   1.000  C
  C44      1.0000 0.14790  0.77570  0.35230  Biso   1.000  C
  C45      1.0000 0.64790  0.72430  0.85230  Biso   1.000  C
  C46      1.0000 0.14790  0.22430  0.85230  Biso   1.000  C
  C47      1.0000 0.35210  0.72430  0.64770  Biso   1.000  C
  C48      1.0000 0.85210  0.22430  0.64770  Biso   1.000  C
  H33      1.0000 0.45970  0.28110  0.14600  Biso   1.000  H
  H34      1.0000 0.95970  0.78110  0.14600  Biso   1.000  H
  H35      1.0000 0.54030  0.28110  0.35400  Biso   1.000  H
  H36      1.0000 0.04030  0.78110  0.35400  Biso   1.000  H
  H37      1.0000 0.54030  0.71890  0.85400  Biso   1.000  H
  H38      1.0000 0.04030  0.21890  0.85400  Biso   1.000  H
  H39      1.0000 0.45970  0.71890  0.64600  Biso   1.000  H
  H40      1.0000 0.95970  0.21890  0.64600  Biso   1.000  H
  C49      1.0000 0.71640  0.06580  0.24490  Biso   1.000  C
  C50      1.0000 0.21640  0.56580  0.24490  Biso   1.000  C
  C51      1.0000 0.28360  0.06580  0.25510  Biso   1.000  C
  C52      1.0000 0.78360  0.56580  0.25510  Biso   1.000  C
  C53      1.0000 0.28360  0.93420  0.75510  Biso   1.000  C
  C54      1.0000 0.78360  0.43420  0.75510  Biso   1.000  C
  C55      1.0000 0.71640  0.93420  0.74490  Biso   1.000  C
  C56      1.0000 0.21640  0.43420  0.74490  Biso   1.000  C
  H41      1.0000 0.75970  0.09480  0.28410  Biso   1.000  H
  H42      1.0000 0.25970  0.59480  0.28410  Biso   1.000  H
  H43      1.0000 0.24030  0.09480  0.21590  Biso   1.000  H
  H44      1.0000 0.74030  0.59480  0.21590  Biso   1.000  H
  H45      1.0000 0.24030  0.90520  0.71590  Biso   1.000  H
  H46      1.0000 0.74030  0.40520  0.71590  Biso   1.000  H
  H47      1.0000 0.75970  0.90520  0.78410  Biso   1.000  H
  H48      1.0000 0.25970  0.40520  0.78410  Biso   1.000  H
  C57      1.0000 0.69500  0.00100  0.26350  Biso   1.000  C
  C58      1.0000 0.19500  0.50100  0.26350  Biso   1.000  C
  C59      1.0000 0.30500  0.00100  0.23650  Biso   1.000  C
  C60      1.0000 0.80500  0.50100  0.23650  Biso   1.000  C
  C61      1.0000 0.30500  0.99900  0.73650  Biso   1.000  C
  C62      1.0000 0.80500  0.49900  0.73650  Biso   1.000  C
  C63      1.0000 0.69500  0.99900  0.76350  Biso   1.000  C
  C64      1.0000 0.19500  0.49900  0.76350  Biso   1.000  C
  H49      1.0000 0.72610  0.98670  0.31570  Biso   1.000  H
  H50      1.0000 0.22610  0.48670  0.31570  Biso   1.000  H
  H51      1.0000 0.27390  0.98670  0.18430  Biso   1.000  H
  H52      1.0000 0.77390  0.48670  0.18430  Biso   1.000  H
  H53      1.0000 0.27390  0.01330  0.68430  Biso   1.000  H
  H54      1.0000 0.77390  0.51330  0.68430  Biso   1.000  H
  H55      1.0000 0.72610  0.01330  0.81570  Biso   1.000  H
  H56      1.0000 0.22610  0.51330  0.81570  Biso   1.000  H
  C65      1.0000 0.56530  0.18340  0.05980  Biso   1.000  C
  C66      1.0000 0.06530  0.68340  0.05980  Biso   1.000  C
  C67      1.0000 0.43470  0.18340  0.44020  Biso   1.000  C
  C68      1.0000 0.93470  0.68340  0.44020  Biso   1.000  C
  C69      1.0000 0.43470  0.81660  0.94020  Biso   1.000  C
  C70      1.0000 0.93470  0.31660  0.94020  Biso   1.000  C
  C71      1.0000 0.56530  0.81660  0.55980  Biso   1.000  C
  C72      1.0000 0.06530  0.31660  0.55980  Biso   1.000  C
  H57      1.0000 0.61060  0.15810  0.01900  Biso   1.000  H
  H58      1.0000 0.11060  0.65810  0.01900  Biso   1.000  H
  H59      1.0000 0.38940  0.15810  0.48100  Biso   1.000  H
  H60      1.0000 0.88940  0.65810  0.48100  Biso   1.000  H
  H61      1.0000 0.38940  0.84190  0.98100  Biso   1.000  H
  H62      1.0000 0.88940  0.34190  0.98100  Biso   1.000  H
  H63      1.0000 0.61060  0.84190  0.51900  Biso   1.000  H
  H64      1.0000 0.11060  0.34190  0.51900  Biso   1.000  H
  H65      1.0000 0.57210  0.22910  0.04510  Biso   1.000  H
  H66      1.0000 0.07210  0.72910  0.04510  Biso   1.000  H
  H67      1.0000 0.42790  0.22910  0.45490  Biso   1.000  H
  H68      1.0000 0.92790  0.72910  0.45490  Biso   1.000  H
  H69      1.0000 0.42790  0.77090  0.95490  Biso   1.000  H
  H70      1.0000 0.92790  0.27090  0.95490  Biso   1.000  H
  H71      1.0000 0.57210  0.77090  0.54510  Biso   1.000  H
  H72      1.0000 0.07210  0.27090  0.54510  Biso   1.000  H
  C73      1.0000 0.60290  0.97750  0.13410  Biso   1.000  C
  C74      1.0000 0.10290  0.47750  0.13410  Biso   1.000  C
  C75      1.0000 0.39710  0.97750  0.36590  Biso   1.000  C
  C76      1.0000 0.89710  0.47750  0.36590  Biso   1.000  C
  C77      1.0000 0.39710  0.02250  0.86590  Biso   1.000  C
  C78      1.0000 0.89710  0.52250  0.86590  Biso   1.000  C
  C79      1.0000 0.60290  0.02250  0.63410  Biso   1.000  C
  C80      1.0000 0.10290  0.52250  0.63410  Biso   1.000  C
  H73      1.0000 0.56750  0.94660  0.09540  Biso   1.000  H
  H74      1.0000 0.06750  0.44660  0.09540  Biso   1.000  H
  H75      1.0000 0.43250  0.94660  0.40460  Biso   1.000  H
  H76      1.0000 0.93250  0.44660  0.40460  Biso   1.000  H
  H77      1.0000 0.43250  0.05340  0.90460  Biso   1.000  H
  H78      1.0000 0.93250  0.55340  0.90460  Biso   1.000  H
  H79      1.0000 0.56750  0.05340  0.59540  Biso   1.000  H
  H80      1.0000 0.06750  0.55340  0.59540  Biso   1.000  H
  C81      1.0000 0.67240  0.08700  0.16650  Biso   1.000  C
  C82      1.0000 0.17240  0.58700  0.16650  Biso   1.000  C
  C83      1.0000 0.32760  0.08700  0.33350  Biso   1.000  C
  C84      1.0000 0.82760  0.58700  0.33350  Biso   1.000  C
  C85      1.0000 0.32760  0.91300  0.83350  Biso   1.000  C
  C86      1.0000 0.82760  0.41300  0.83350  Biso   1.000  C
  C87      1.0000 0.67240  0.91300  0.66650  Biso   1.000  C
  C88      1.0000 0.17240  0.41300  0.66650  Biso   1.000  C
  N17      1.0000 0.69910  0.37270  0.09600  Biso   1.000  N
  N18      1.0000 0.19910  0.87270  0.09600  Biso   1.000  N
  N19      1.0000 0.30090  0.37270  0.40400  Biso   1.000  N
  N20      1.0000 0.80090  0.87270  0.40400  Biso   1.000  N
  N21      1.0000 0.30090  0.62730  0.90400  Biso   1.000  N
  N22      1.0000 0.80090  0.12730  0.90400  Biso   1.000  N
  N23      1.0000 0.69910  0.62730  0.59600  Biso   1.000  N
  N24      1.0000 0.19910  0.12730  0.59600  Biso   1.000  N
  O1       1.0000 0.62250  0.34940  0.03760  Biso   1.000  O
  O2       1.0000 0.12250  0.84940  0.03760  Biso   1.000  O
  O3       1.0000 0.37750  0.34940  0.46240  Biso   1.000  O
  O4       1.0000 0.87750  0.84940  0.46240  Biso   1.000  O
  O5       1.0000 0.37750  0.65060  0.96240  Biso   1.000  O
  O6       1.0000 0.87750  0.15060  0.96240  Biso   1.000  O
  O7       1.0000 0.62250  0.65060  0.53760  Biso   1.000  O
  O8       1.0000 0.12250  0.15060  0.53760  Biso   1.000  O
  O9       1.0000 0.82500  0.38780  0.10710  Biso   1.000  O
  O10      1.0000 0.32500  0.88780  0.10710  Biso   1.000  O
  O11      1.0000 0.17500  0.38780  0.39290  Biso   1.000  O
  O12      1.0000 0.67500  0.88780  0.39290  Biso   1.000  O
  O13      1.0000 0.17500  0.61220  0.89290  Biso   1.000  O
  O14      1.0000 0.67500  0.11220  0.89290  Biso   1.000  O
  O15      1.0000 0.82500  0.61220  0.60710  Biso   1.000  O
  O16      1.0000 0.32500  0.11220  0.60710  Biso   1.000  O
  O17      1.0000 0.58360  0.39740  0.13220  Biso   1.000  O
  O18      1.0000 0.08360  0.89740  0.13220  Biso   1.000  O
  O19      1.0000 0.41640  0.39740  0.36780  Biso   1.000  O
  O20      1.0000 0.91640  0.89740  0.36780  Biso   1.000  O
  O21      1.0000 0.41640  0.60260  0.86780  Biso   1.000  O
  O22      1.0000 0.91640  0.10260  0.86780  Biso   1.000  O
  O23      1.0000 0.58360  0.60260  0.63220  Biso   1.000  O
  O24      1.0000 0.08360  0.10260  0.63220  Biso   1.000  O
