data_image0
_cell_length_a       10.45
_cell_length_b       19.989
_cell_length_c       10.011
_cell_angle_alpha    90
_cell_angle_beta     90
_cell_angle_gamma    90

_symmetry_space_group_name_H-M    "P 1"
_symmetry_int_tables_number       1

loop_
  _symmetry_equiv_pos_as_xyz
  'x, y, z'

loop_
  _atom_site_label
  _atom_site_occupancy
  _atom_site_fract_x
  _atom_site_fract_y
  _atom_site_fract_z
  _atom_site_thermal_displace_type
  _atom_site_B_iso_or_equiv
  _atom_site_type_symbol
  Cu1      1.0000 0.00000  0.50000  0.00000  Biso   1.000  Cu
  Cu2      1.0000 0.50000  0.50000  0.50000  Biso   1.000  Cu
  Cu3      1.0000 0.00000  0.00000  0.00000  Biso   1.000  Cu
  Cu4      1.0000 0.50000  0.00000  0.50000  Biso   1.000  Cu
  C1       1.0000 0.18010  0.55040  0.18030  Biso   1.000  C
  C2       1.0000 0.68010  0.55040  0.31970  Biso   1.000  C
  C3       1.0000 0.18010  0.94960  0.18030  Biso   1.000  C
  C4       1.0000 0.31990  0.05040  0.68030  Biso   1.000  C
  C5       1.0000 0.81990  0.44960  0.81970  Biso   1.000  C
  C6       1.0000 0.31990  0.44960  0.68030  Biso   1.000  C
  C7       1.0000 0.81990  0.05040  0.81970  Biso   1.000  C
  C8       1.0000 0.68010  0.94960  0.31970  Biso   1.000  C
  C9       1.0000 0.27470  0.55460  0.27070  Biso   1.000  C
  C10      1.0000 0.77470  0.55460  0.22930  Biso   1.000  C
  C11      1.0000 0.27470  0.94540  0.27070  Biso   1.000  C
  C12      1.0000 0.22530  0.05460  0.77070  Biso   1.000  C
  C13      1.0000 0.72530  0.44540  0.72930  Biso   1.000  C
  C14      1.0000 0.22530  0.44540  0.77070  Biso   1.000  C
  C15      1.0000 0.72530  0.05460  0.72930  Biso   1.000  C
  C16      1.0000 0.77470  0.94540  0.22930  Biso   1.000  C
  H1       1.0000 0.30240  0.59660  0.29820  Biso   1.000  H
  H2       1.0000 0.80240  0.59660  0.20180  Biso   1.000  H
  H3       1.0000 0.30240  0.90340  0.29820  Biso   1.000  H
  H4       1.0000 0.19760  0.09660  0.79820  Biso   1.000  H
  H5       1.0000 0.69760  0.40340  0.70180  Biso   1.000  H
  H6       1.0000 0.19760  0.40340  0.79820  Biso   1.000  H
  H7       1.0000 0.69760  0.09660  0.70180  Biso   1.000  H
  H8       1.0000 0.80240  0.90340  0.20180  Biso   1.000  H
  C17      1.0000 0.28770  0.44240  0.27950  Biso   1.000  C
  C18      1.0000 0.78770  0.44240  0.22050  Biso   1.000  C
  C19      1.0000 0.28770  0.05760  0.27950  Biso   1.000  C
  C20      1.0000 0.21230  0.94240  0.77950  Biso   1.000  C
  C21      1.0000 0.71230  0.55760  0.72050  Biso   1.000  C
  C22      1.0000 0.21230  0.55760  0.77950  Biso   1.000  C
  C23      1.0000 0.71230  0.94240  0.72050  Biso   1.000  C
  C24      1.0000 0.78770  0.05760  0.22050  Biso   1.000  C
  H9       1.0000 0.32430  0.40380  0.31450  Biso   1.000  H
  H10      1.0000 0.82430  0.40380  0.18550  Biso   1.000  H
  H11      1.0000 0.32430  0.09620  0.31450  Biso   1.000  H
  H12      1.0000 0.17570  0.90380  0.81450  Biso   1.000  H
  H13      1.0000 0.67570  0.59620  0.68550  Biso   1.000  H
  H14      1.0000 0.17570  0.59620  0.81450  Biso   1.000  H
  H15      1.0000 0.67570  0.90380  0.68550  Biso   1.000  H
  H16      1.0000 0.82430  0.09620  0.18550  Biso   1.000  H
  C25      1.0000 0.19250  0.43590  0.18640  Biso   1.000  C
  C26      1.0000 0.69250  0.43590  0.31360  Biso   1.000  C
  C27      1.0000 0.19250  0.06410  0.18640  Biso   1.000  C
  C28      1.0000 0.30750  0.93590  0.68640  Biso   1.000  C
  C29      1.0000 0.80750  0.56410  0.81360  Biso   1.000  C
  C30      1.0000 0.30750  0.56410  0.68640  Biso   1.000  C
  C31      1.0000 0.80750  0.93590  0.81360  Biso   1.000  C
  C32      1.0000 0.69250  0.06410  0.31360  Biso   1.000  C
  H17      1.0000 0.16580  0.39380  0.15870  Biso   1.000  H
  H18      1.0000 0.66580  0.39380  0.34130  Biso   1.000  H
  H19      1.0000 0.16580  0.10620  0.15870  Biso   1.000  H
  H20      1.0000 0.33420  0.89380  0.65870  Biso   1.000  H
  H21      1.0000 0.83420  0.60620  0.84130  Biso   1.000  H
  H22      1.0000 0.33420  0.60620  0.65870  Biso   1.000  H
  H23      1.0000 0.83420  0.89380  0.84130  Biso   1.000  H
  H24      1.0000 0.66580  0.10620  0.34130  Biso   1.000  H
  C33      1.0000 0.11750  0.60950  0.11380  Biso   1.000  C
  C34      1.0000 0.61750  0.60950  0.38620  Biso   1.000  C
  C35      1.0000 0.11750  0.89050  0.11380  Biso   1.000  C
  C36      1.0000 0.38250  0.10950  0.61380  Biso   1.000  C
  C37      1.0000 0.88250  0.39050  0.88620  Biso   1.000  C
  C38      1.0000 0.38250  0.39050  0.61380  Biso   1.000  C
  C39      1.0000 0.88250  0.10950  0.88620  Biso   1.000  C
  C40      1.0000 0.61750  0.89050  0.38620  Biso   1.000  C
  N1       1.0000 0.13790  0.49140  0.13530  Biso   1.000  N
  N2       1.0000 0.63790  0.49140  0.36470  Biso   1.000  N
  N3       1.0000 0.13790  0.00860  0.13530  Biso   1.000  N
  N4       1.0000 0.36210  0.99140  0.63530  Biso   1.000  N
  N5       1.0000 0.86210  0.50860  0.86470  Biso   1.000  N
  N6       1.0000 0.36210  0.50860  0.63530  Biso   1.000  N
  N7       1.0000 0.86210  0.99140  0.86470  Biso   1.000  N
  N8       1.0000 0.63790  0.00860  0.36470  Biso   1.000  N
  N9       1.0000 0.32960  0.50070  0.32160  Biso   1.000  N
  N10      1.0000 0.82960  0.50070  0.17840  Biso   1.000  N
  N11      1.0000 0.32960  0.99930  0.32160  Biso   1.000  N
  N12      1.0000 0.17040  0.00070  0.82160  Biso   1.000  N
  N13      1.0000 0.67040  0.49930  0.67840  Biso   1.000  N
  N14      1.0000 0.17040  0.49930  0.82160  Biso   1.000  N
  N15      1.0000 0.67040  0.00070  0.67840  Biso   1.000  N
  N16      1.0000 0.82960  0.99930  0.17840  Biso   1.000  N
  O1       1.0000 0.02940  0.59490  0.02600  Biso   1.000  O
  O2       1.0000 0.52940  0.59490  0.47400  Biso   1.000  O
  O3       1.0000 0.02940  0.90510  0.02600  Biso   1.000  O
  O4       1.0000 0.47060  0.09490  0.52600  Biso   1.000  O
  O5       1.0000 0.97060  0.40510  0.97400  Biso   1.000  O
  O6       1.0000 0.47060  0.40510  0.52600  Biso   1.000  O
  O7       1.0000 0.97060  0.09490  0.97400  Biso   1.000  O
  O8       1.0000 0.52940  0.90510  0.47400  Biso   1.000  O
  O9       1.0000 0.15370  0.66500  0.13850  Biso   1.000  O
  O10      1.0000 0.65370  0.66500  0.36150  Biso   1.000  O
  O11      1.0000 0.15370  0.83500  0.13850  Biso   1.000  O
  O12      1.0000 0.34630  0.16500  0.63850  Biso   1.000  O
  O13      1.0000 0.84630  0.33500  0.86150  Biso   1.000  O
  O14      1.0000 0.34630  0.33500  0.63850  Biso   1.000  O
  O15      1.0000 0.84630  0.16500  0.86150  Biso   1.000  O
  O16      1.0000 0.65370  0.83500  0.36150  Biso   1.000  O
  Hg1      1.0000 0.04067  0.75000  0.99277  Biso   1.000  Hg
  Hg2      1.0000 0.54067  0.75000  0.50723  Biso   1.000  Hg
  Hg3      1.0000 0.45933  0.25000  0.49277  Biso   1.000  Hg
  Hg4      1.0000 0.95933  0.25000  0.00723  Biso   1.000  Hg
  I1       1.0000 0.19741  0.75000  0.78682  Biso   1.000  I
  I2       1.0000 0.69741  0.75000  0.71318  Biso   1.000  I
  I3       1.0000 0.30259  0.25000  0.28682  Biso   1.000  I
  I4       1.0000 0.80259  0.25000  0.21318  Biso   1.000  I
  I5       1.0000 0.82566  0.75000  0.12407  Biso   1.000  I
  I6       1.0000 0.32566  0.75000  0.37593  Biso   1.000  I
  I7       1.0000 0.67434  0.25000  0.62407  Biso   1.000  I
  I8       1.0000 0.17434  0.25000  0.87593  Biso   1.000  I
  Hg5      1.0000 0.98847  0.75000  0.48088  Biso   1.000  Hg
  Hg6      1.0000 0.48847  0.75000  0.01912  Biso   1.000  Hg
  Hg7      1.0000 0.51153  0.25000  0.98088  Biso   1.000  Hg
  Hg8      1.0000 0.01153  0.25000  0.51912  Biso   1.000  Hg
  I9       1.0000 0.99169  0.62114  0.48953  Biso   1.000  I
  I10      1.0000 0.49169  0.62114  0.01047  Biso   1.000  I
  I11      1.0000 0.99169  0.87886  0.48953  Biso   1.000  I
  I12      1.0000 0.50831  0.12114  0.98953  Biso   1.000  I
  I13      1.0000 0.00831  0.37886  0.51047  Biso   1.000  I
  I14      1.0000 0.50831  0.37886  0.98953  Biso   1.000  I
  I15      1.0000 0.00831  0.12114  0.51047  Biso   1.000  I
  I16      1.0000 0.49169  0.87886  0.01047  Biso   1.000  I
