data_image0
_cell_length_a       10.4688
_cell_length_b       11.6327
_cell_length_c       12.83
_cell_angle_alpha    78.672
_cell_angle_beta     87.609
_cell_angle_gamma    67.571

_symmetry_space_group_name_H-M    "P 1"
_symmetry_int_tables_number       1

loop_
  _symmetry_equiv_pos_as_xyz
  'x, y, z'

loop_
  _atom_site_label
  _atom_site_occupancy
  _atom_site_fract_x
  _atom_site_fract_y
  _atom_site_fract_z
  _atom_site_thermal_displace_type
  _atom_site_B_iso_or_equiv
  _atom_site_type_symbol
  C1       1.0000 0.75990  0.00000  0.58090  Biso   1.000  C
  C2       1.0000 0.24010  0.00000  0.41910  Biso   1.000  C
  H1       1.0000 0.75940  0.92630  0.62810  Biso   1.000  H
  H2       1.0000 0.24060  0.07370  0.37190  Biso   1.000  H
  C3       1.0000 0.86410  0.04260  0.59350  Biso   1.000  C
  C4       1.0000 0.13590  0.95740  0.40650  Biso   1.000  C
  H3       1.0000 0.93290  0.99840  0.64880  Biso   1.000  H
  H4       1.0000 0.06710  0.00160  0.35120  Biso   1.000  H
  C5       1.0000 0.86800  0.14970  0.52550  Biso   1.000  C
  C6       1.0000 0.13200  0.85030  0.47450  Biso   1.000  C
  C7       1.0000 0.76800  0.20700  0.44360  Biso   1.000  C
  C8       1.0000 0.23200  0.79300  0.55640  Biso   1.000  C
  H5       1.0000 0.76920  0.27840  0.39320  Biso   1.000  H
  H6       1.0000 0.23080  0.72160  0.60680  Biso   1.000  H
  C9       1.0000 0.66650  0.15970  0.43550  Biso   1.000  C
  C10      1.0000 0.33350  0.84030  0.56450  Biso   1.000  C
  H7       1.0000 0.59900  0.19990  0.37890  Biso   1.000  H
  H8       1.0000 0.40100  0.80010  0.62110  Biso   1.000  H
  C11      1.0000 0.97550  0.20300  0.53990  Biso   1.000  C
  C12      1.0000 0.02450  0.79700  0.46010  Biso   1.000  C
  H9       1.0000 0.93380  0.27750  0.57290  Biso   1.000  H
  H10      1.0000 0.06620  0.72250  0.42710  Biso   1.000  H
  H11      1.0000 0.01000  0.22780  0.47040  Biso   1.000  H
  H12      1.0000 0.99000  0.77220  0.52960  Biso   1.000  H
  H13      1.0000 0.05230  0.13850  0.58560  Biso   1.000  H
  H14      1.0000 0.94770  0.86150  0.41440  Biso   1.000  H
  C13      1.0000 0.67710  0.72480  0.50520  Biso   1.000  C
  C14      1.0000 0.32290  0.27520  0.49480  Biso   1.000  C
  H15      1.0000 0.64530  0.71250  0.57540  Biso   1.000  H
  H16      1.0000 0.35470  0.28750  0.42460  Biso   1.000  H
  C15      1.0000 0.76560  0.62090  0.46780  Biso   1.000  C
  C16      1.0000 0.23440  0.37910  0.53220  Biso   1.000  C
  H17      1.0000 0.79430  0.53920  0.51230  Biso   1.000  H
  H18      1.0000 0.20570  0.46080  0.48770  Biso   1.000  H
  C17      1.0000 0.81360  0.63460  0.36470  Biso   1.000  C
  C18      1.0000 0.18640  0.36540  0.63530  Biso   1.000  C
  C19      1.0000 0.90730  0.52300  0.31950  Biso   1.000  C
  C20      1.0000 0.09270  0.47700  0.68050  Biso   1.000  C
  H19      1.0000 0.85480  0.47360  0.30500  Biso   1.000  H
  H20      1.0000 0.14520  0.52640  0.69500  Biso   1.000  H
  H21      1.0000 0.98340  0.46950  0.37090  Biso   1.000  H
  H22      1.0000 0.01660  0.53050  0.62910  Biso   1.000  H
  H23      1.0000 0.94490  0.55320  0.25330  Biso   1.000  H
  H24      1.0000 0.05510  0.44680  0.74670  Biso   1.000  H
  C21      1.0000 0.77000  0.75680  0.30530  Biso   1.000  C
  C22      1.0000 0.23000  0.24320  0.69470  Biso   1.000  C
  H25      1.0000 0.80150  0.77150  0.23530  Biso   1.000  H
  H26      1.0000 0.19850  0.22850  0.76470  Biso   1.000  H
  C23      1.0000 0.68080  0.85750  0.34760  Biso   1.000  C
  C24      1.0000 0.31920  0.14250  0.65240  Biso   1.000  C
  H27      1.0000 0.65170  0.94020  0.30480  Biso   1.000  H
  H28      1.0000 0.34830  0.05980  0.69520  Biso   1.000  H
  C25      1.0000 0.43340  0.86510  0.20200  Biso   1.000  C
  C26      1.0000 0.56660  0.13490  0.79800  Biso   1.000  C
  H29      1.0000 0.38700  0.94900  0.21380  Biso   1.000  H
  H30      1.0000 0.61300  0.05100  0.78620  Biso   1.000  H
  C27      1.0000 0.42960  0.76460  0.27920  Biso   1.000  C
  C28      1.0000 0.57040  0.23540  0.72080  Biso   1.000  C
  H31      1.0000 0.38110  0.78060  0.34240  Biso   1.000  H
  H32      1.0000 0.61890  0.21940  0.65760  Biso   1.000  H
  C29      1.0000 0.49630  0.64130  0.26450  Biso   1.000  C
  C30      1.0000 0.50370  0.35870  0.73550  Biso   1.000  C
  C31      1.0000 0.56740  0.62470  0.17140  Biso   1.000  C
  C32      1.0000 0.43260  0.37530  0.82860  Biso   1.000  C
  H33      1.0000 0.61660  0.54160  0.15850  Biso   1.000  H
  H34      1.0000 0.38340  0.45840  0.84150  Biso   1.000  H
  C33      1.0000 0.56670  0.72870  0.09750  Biso   1.000  C
  C34      1.0000 0.43330  0.27130  0.90250  Biso   1.000  C
  H35      1.0000 0.61560  0.71500  0.03420  Biso   1.000  H
  H36      1.0000 0.38440  0.28500  0.96580  Biso   1.000  H
  C35      1.0000 0.49340  0.53030  0.34660  Biso   1.000  C
  C36      1.0000 0.50660  0.46970  0.65340  Biso   1.000  C
  H37      1.0000 0.57350  0.50000  0.39600  Biso   1.000  H
  H38      1.0000 0.42650  0.50000  0.60400  Biso   1.000  H
  H39      1.0000 0.49670  0.46200  0.31120  Biso   1.000  H
  H40      1.0000 0.50330  0.53800  0.68880  Biso   1.000  H
  H41      1.0000 0.40820  0.55690  0.38600  Biso   1.000  H
  H42      1.0000 0.59180  0.44310  0.61400  Biso   1.000  H
  C37      1.0000 0.73940  0.02330  0.09280  Biso   1.000  C
  C38      1.0000 0.26060  0.97670  0.90720  Biso   1.000  C
  H43      1.0000 0.66920  0.09670  0.11050  Biso   1.000  H
  H44      1.0000 0.33080  0.90330  0.88950  Biso   1.000  H
  C39      1.0000 0.87480  0.99160  0.12720  Biso   1.000  C
  C40      1.0000 0.12520  0.00840  0.87280  Biso   1.000  C
  H45      1.0000 0.89580  0.04280  0.16760  Biso   1.000  H
  H46      1.0000 0.10420  0.95720  0.83240  Biso   1.000  H
  C41      1.0000 0.97920  0.88520  0.10230  Biso   1.000  C
  C42      1.0000 0.02080  0.11480  0.89770  Biso   1.000  C
  C43      1.0000 0.94280  0.81580  0.04060  Biso   1.000  C
  C44      1.0000 0.05720  0.18420  0.95940  Biso   1.000  C
  H47      1.0000 0.01130  0.74300  0.02070  Biso   1.000  H
  H48      1.0000 0.98870  0.25700  0.97930  Biso   1.000  H
  C45      1.0000 0.80540  0.85390  0.00840  Biso   1.000  C
  C46      1.0000 0.19460  0.14610  0.99160  Biso   1.000  C
  H49      1.0000 0.78220  0.80670  0.96510  Biso   1.000  H
  H50      1.0000 0.21780  0.19330  0.03490  Biso   1.000  H
  C47      1.0000 0.12640  0.84480  0.14200  Biso   1.000  C
  C48      1.0000 0.87360  0.15520  0.85800  Biso   1.000  C
  H51      1.0000 0.14780  0.92010  0.14050  Biso   1.000  H
  H52      1.0000 0.85220  0.07990  0.85950  Biso   1.000  H
  H53      1.0000 0.18930  0.79180  0.09620  Biso   1.000  H
  H54      1.0000 0.81070  0.20820  0.90380  Biso   1.000  H
  H55      1.0000 0.13780  0.79640  0.21500  Biso   1.000  H
  H56      1.0000 0.86220  0.20360  0.78500  Biso   1.000  H
  Cu1      1.0000 0.50000  0.00000  0.50000  Biso   1.000  Cu
  Cu2      1.0000 0.50000  0.00000  0.00000  Biso   1.000  Cu
  N1       1.0000 0.65960  0.05890  0.50462  Biso   1.000  N
  N2       1.0000 0.34040  0.94110  0.49538  Biso   1.000  N
  N3       1.0000 0.63320  0.84380  0.44667  Biso   1.000  N
  N4       1.0000 0.36680  0.15620  0.55333  Biso   1.000  N
  N5       1.0000 0.50020  0.84790  0.11114  Biso   1.000  N
  N6       1.0000 0.49980  0.15210  0.88886  Biso   1.000  N
  N7       1.0000 0.70390  0.95440  0.03565  Biso   1.000  N
  N8       1.0000 0.29610  0.04560  0.96435  Biso   1.000  N
  O1       1.0000 0.44320  0.11465  0.32076  Biso   1.000  O
  O2       1.0000 0.55680  0.88535  0.67924  Biso   1.000  O
  O3       1.0000 0.42970  0.13720  0.13099  Biso   1.000  O
  O4       1.0000 0.57030  0.86280  0.86901  Biso   1.000  O
  O5       1.0000 0.24380  0.27430  0.21897  Biso   1.000  O
  O6       1.0000 0.75620  0.72570  0.78103  Biso   1.000  O
  O7       1.0000 0.46410  0.29690  0.20710  Biso   1.000  O
  O8       1.0000 0.53590  0.70310  0.79290  Biso   1.000  O
  O9       1.0000 0.72470  0.30430  0.14380  Biso   1.000  O
  O10      1.0000 0.27530  0.69570  0.85620  Biso   1.000  O
  H57      1.0000 0.70070  0.35190  0.08260  Biso   1.000  H
  H58      1.0000 0.29930  0.64810  0.91740  Biso   1.000  H
  H59      1.0000 0.65290  0.29560  0.17140  Biso   1.000  H
  H60      1.0000 0.34710  0.70440  0.82860  Biso   1.000  H
  O11      1.0000 0.36740  0.51720  0.05480  Biso   1.000  O
  O12      1.0000 0.63260  0.48280  0.94520  Biso   1.000  O
  H61      1.0000 0.41030  0.50110  0.99920  Biso   1.000  H
  H62      1.0000 0.58970  0.49890  0.00080  Biso   1.000  H
  H63      1.0000 0.40340  0.44670  0.09720  Biso   1.000  H
  H64      1.0000 0.59660  0.55330  0.90280  Biso   1.000  H
  O13      1.0000 0.99600  0.21460  0.24790  Biso   1.000  O
  O14      1.0000 0.00400  0.78540  0.75210  Biso   1.000  O
  H65      1.0000 0.92930  0.26320  0.20540  Biso   1.000  H
  H66      1.0000 0.07070  0.73680  0.79460  Biso   1.000  H
  H67      1.0000 0.05520  0.24490  0.22280  Biso   1.000  H
  H68      1.0000 0.94480  0.75510  0.77720  Biso   1.000  H
  O15      1.0000 0.13060  0.46300  0.03970  Biso   1.000  O
  O16      1.0000 0.86940  0.53700  0.96030  Biso   1.000  O
  H69      1.0000 0.11090  0.47220  0.10270  Biso   1.000  H
  H70      1.0000 0.88910  0.52780  0.89730  Biso   1.000  H
  H71      1.0000 0.18420  0.50270  0.02610  Biso   1.000  H
  H72      1.0000 0.81580  0.49730  0.97390  Biso   1.000  H
  O17      1.0000 0.20000  0.53270  0.27040  Biso   1.000  O
  O18      1.0000 0.80000  0.46730  0.72960  Biso   1.000  O
  H73      1.0000 0.23110  0.56400  0.21510  Biso   1.000  H
  H74      1.0000 0.76890  0.43600  0.78490  Biso   1.000  H
  H75      1.0000 0.21660  0.45930  0.25900  Biso   1.000  H
  H76      1.0000 0.78340  0.54070  0.74100  Biso   1.000  H
  S1       1.0000 0.39467  0.20521  0.21937  Biso   1.000  S
  S2       1.0000 0.60533  0.79479  0.78063  Biso   1.000  S
  H77      1.0000 0.29050  0.51470  0.03990  Biso   1.000  H
  H78      1.0000 0.70950  0.48530  0.96010  Biso   1.000  H
  H79      1.0000 0.05070  0.48440  0.01250  Biso   1.000  H
  H80      1.0000 0.94930  0.51560  0.98750  Biso   1.000  H
