data_image0
_cell_length_a       20.068
_cell_length_b       7.466
_cell_length_c       13.194
_cell_angle_alpha    90
_cell_angle_beta     93.04
_cell_angle_gamma    90

_symmetry_space_group_name_H-M    "P 1"
_symmetry_int_tables_number       1

loop_
  _symmetry_equiv_pos_as_xyz
  'x, y, z'

loop_
  _atom_site_label
  _atom_site_occupancy
  _atom_site_fract_x
  _atom_site_fract_y
  _atom_site_fract_z
  _atom_site_thermal_displace_type
  _atom_site_B_iso_or_equiv
  _atom_site_type_symbol
  Cu1      1.0000 0.25000  0.75000  0.50000  Biso   1.000  Cu
  Cu2      1.0000 0.75000  0.25000  0.50000  Biso   1.000  Cu
  Cu3      1.0000 0.75000  0.75000  0.00000  Biso   1.000  Cu
  Cu4      1.0000 0.25000  0.25000  0.00000  Biso   1.000  Cu
  O1       1.0000 0.27134  0.63530  0.63566  Biso   1.000  O
  O2       1.0000 0.77134  0.13530  0.63566  Biso   1.000  O
  O3       1.0000 0.72866  0.63530  0.86434  Biso   1.000  O
  O4       1.0000 0.22866  0.13530  0.86434  Biso   1.000  O
  O5       1.0000 0.72866  0.36470  0.36434  Biso   1.000  O
  O6       1.0000 0.22866  0.86470  0.36434  Biso   1.000  O
  O7       1.0000 0.27134  0.36470  0.13566  Biso   1.000  O
  O8       1.0000 0.77134  0.86470  0.13566  Biso   1.000  O
  H1       1.0000 0.23680  0.59400  0.67600  Biso   1.000  H
  H2       1.0000 0.73680  0.09400  0.67600  Biso   1.000  H
  H3       1.0000 0.76320  0.59400  0.82400  Biso   1.000  H
  H4       1.0000 0.26320  0.09400  0.82400  Biso   1.000  H
  H5       1.0000 0.76320  0.40600  0.32400  Biso   1.000  H
  H6       1.0000 0.26320  0.90600  0.32400  Biso   1.000  H
  H7       1.0000 0.23680  0.40600  0.17600  Biso   1.000  H
  H8       1.0000 0.73680  0.90600  0.17600  Biso   1.000  H
  H9       1.0000 0.30170  0.54200  0.63200  Biso   1.000  H
  H10      1.0000 0.80170  0.04200  0.63200  Biso   1.000  H
  H11      1.0000 0.69830  0.54200  0.86800  Biso   1.000  H
  H12      1.0000 0.19830  0.04200  0.86800  Biso   1.000  H
  H13      1.0000 0.69830  0.45800  0.36800  Biso   1.000  H
  H14      1.0000 0.19830  0.95800  0.36800  Biso   1.000  H
  H15      1.0000 0.30170  0.45800  0.13200  Biso   1.000  H
  H16      1.0000 0.80170  0.95800  0.13200  Biso   1.000  H
  N1       1.0000 0.33332  0.63500  0.44515  Biso   1.000  N
  N2       1.0000 0.83332  0.13500  0.44515  Biso   1.000  N
  N3       1.0000 0.66668  0.63500  0.05485  Biso   1.000  N
  N4       1.0000 0.16668  0.13500  0.05485  Biso   1.000  N
  N5       1.0000 0.66668  0.36500  0.55485  Biso   1.000  N
  N6       1.0000 0.16668  0.86500  0.55485  Biso   1.000  N
  N7       1.0000 0.33332  0.36500  0.94515  Biso   1.000  N
  N8       1.0000 0.83332  0.86500  0.94515  Biso   1.000  N
  C1       1.0000 0.34004  0.45700  0.44260  Biso   1.000  C
  C2       1.0000 0.84004  0.95700  0.44260  Biso   1.000  C
  C3       1.0000 0.65996  0.45700  0.05740  Biso   1.000  C
  C4       1.0000 0.15996  0.95700  0.05740  Biso   1.000  C
  C5       1.0000 0.65996  0.54300  0.55740  Biso   1.000  C
  C6       1.0000 0.15996  0.04300  0.55740  Biso   1.000  C
  C7       1.0000 0.34004  0.54300  0.94260  Biso   1.000  C
  C8       1.0000 0.84004  0.04300  0.94260  Biso   1.000  C
  H17      1.0000 0.30500  0.38660  0.46330  Biso   1.000  H
  H18      1.0000 0.80500  0.88660  0.46330  Biso   1.000  H
  H19      1.0000 0.69500  0.38660  0.03670  Biso   1.000  H
  H20      1.0000 0.19500  0.88660  0.03670  Biso   1.000  H
  H21      1.0000 0.69500  0.61340  0.53670  Biso   1.000  H
  H22      1.0000 0.19500  0.11340  0.53670  Biso   1.000  H
  H23      1.0000 0.30500  0.61340  0.96330  Biso   1.000  H
  H24      1.0000 0.80500  0.11340  0.96330  Biso   1.000  H
  C9       1.0000 0.39657  0.37210  0.41040  Biso   1.000  C
  C10      1.0000 0.89657  0.87210  0.41040  Biso   1.000  C
  C11      1.0000 0.60343  0.37210  0.08960  Biso   1.000  C
  C12      1.0000 0.10343  0.87210  0.08960  Biso   1.000  C
  C13      1.0000 0.60343  0.62790  0.58960  Biso   1.000  C
  C14      1.0000 0.10343  0.12790  0.58960  Biso   1.000  C
  C15      1.0000 0.39657  0.62790  0.91040  Biso   1.000  C
  C16      1.0000 0.89657  0.12790  0.91040  Biso   1.000  C
  H25      1.0000 0.39900  0.24780  0.40980  Biso   1.000  H
  H26      1.0000 0.89900  0.74780  0.40980  Biso   1.000  H
  H27      1.0000 0.60100  0.24780  0.09020  Biso   1.000  H
  H28      1.0000 0.10100  0.74780  0.09020  Biso   1.000  H
  H29      1.0000 0.60100  0.75220  0.59020  Biso   1.000  H
  H30      1.0000 0.10100  0.25220  0.59020  Biso   1.000  H
  H31      1.0000 0.39900  0.75220  0.90980  Biso   1.000  H
  H32      1.0000 0.89900  0.25220  0.90980  Biso   1.000  H
  C17      1.0000 0.44972  0.47450  0.37918  Biso   1.000  C
  C18      1.0000 0.94972  0.97450  0.37918  Biso   1.000  C
  C19      1.0000 0.55028  0.47450  0.12082  Biso   1.000  C
  C20      1.0000 0.05028  0.97450  0.12082  Biso   1.000  C
  C21      1.0000 0.55028  0.52550  0.62082  Biso   1.000  C
  C22      1.0000 0.05028  0.02550  0.62082  Biso   1.000  C
  C23      1.0000 0.44972  0.52550  0.87918  Biso   1.000  C
  C24      1.0000 0.94972  0.02550  0.87918  Biso   1.000  C
  C25      1.0000 0.44225  0.65790  0.38050  Biso   1.000  C
  C26      1.0000 0.94225  0.15790  0.38050  Biso   1.000  C
  C27      1.0000 0.55775  0.65790  0.11950  Biso   1.000  C
  C28      1.0000 0.05775  0.15790  0.11950  Biso   1.000  C
  C29      1.0000 0.55775  0.34210  0.61950  Biso   1.000  C
  C30      1.0000 0.05775  0.84210  0.61950  Biso   1.000  C
  C31      1.0000 0.44225  0.34210  0.88050  Biso   1.000  C
  C32      1.0000 0.94225  0.84210  0.88050  Biso   1.000  C
  H33      1.0000 0.47620  0.73110  0.35910  Biso   1.000  H
  H34      1.0000 0.97620  0.23110  0.35910  Biso   1.000  H
  H35      1.0000 0.52380  0.73110  0.14090  Biso   1.000  H
  H36      1.0000 0.02380  0.23110  0.14090  Biso   1.000  H
  H37      1.0000 0.52380  0.26890  0.64090  Biso   1.000  H
  H38      1.0000 0.02380  0.76890  0.64090  Biso   1.000  H
  H39      1.0000 0.47620  0.26890  0.85910  Biso   1.000  H
  H40      1.0000 0.97620  0.76890  0.85910  Biso   1.000  H
  C33      1.0000 0.38433  0.73380  0.41380  Biso   1.000  C
  C34      1.0000 0.88433  0.23380  0.41380  Biso   1.000  C
  C35      1.0000 0.61567  0.73380  0.08620  Biso   1.000  C
  C36      1.0000 0.11567  0.23380  0.08620  Biso   1.000  C
  C37      1.0000 0.61567  0.26620  0.58620  Biso   1.000  C
  C38      1.0000 0.11567  0.76620  0.58620  Biso   1.000  C
  C39      1.0000 0.38433  0.26620  0.91380  Biso   1.000  C
  C40      1.0000 0.88433  0.76620  0.91380  Biso   1.000  C
  H41      1.0000 0.38060  0.85790  0.41450  Biso   1.000  H
  H42      1.0000 0.88060  0.35790  0.41450  Biso   1.000  H
  H43      1.0000 0.61940  0.85790  0.08550  Biso   1.000  H
  H44      1.0000 0.11940  0.35790  0.08550  Biso   1.000  H
  H45      1.0000 0.61940  0.14210  0.58550  Biso   1.000  H
  H46      1.0000 0.11940  0.64210  0.58550  Biso   1.000  H
  H47      1.0000 0.38060  0.14210  0.91450  Biso   1.000  H
  H48      1.0000 0.88060  0.64210  0.91450  Biso   1.000  H
  C41      1.0000 0.51244  0.38400  0.34590  Biso   1.000  C
  C42      1.0000 0.01244  0.88400  0.34590  Biso   1.000  C
  C43      1.0000 0.48756  0.38400  0.15410  Biso   1.000  C
  C44      1.0000 0.98756  0.88400  0.15410  Biso   1.000  C
  C45      1.0000 0.48756  0.61600  0.65410  Biso   1.000  C
  C46      1.0000 0.98756  0.11600  0.65410  Biso   1.000  C
  C47      1.0000 0.51244  0.61600  0.84590  Biso   1.000  C
  C48      1.0000 0.01244  0.11600  0.84590  Biso   1.000  C
  H49      1.0000 0.53030  0.30800  0.40040  Biso   1.000  H
  H50      1.0000 0.03030  0.80800  0.40040  Biso   1.000  H
  H51      1.0000 0.46970  0.30800  0.09960  Biso   1.000  H
  H52      1.0000 0.96970  0.80800  0.09960  Biso   1.000  H
  H53      1.0000 0.46970  0.69200  0.59960  Biso   1.000  H
  H54      1.0000 0.96970  0.19200  0.59960  Biso   1.000  H
  H55      1.0000 0.53030  0.69200  0.90040  Biso   1.000  H
  H56      1.0000 0.03030  0.19200  0.90040  Biso   1.000  H
  H57      1.0000 0.54560  0.47470  0.33330  Biso   1.000  H
  H58      1.0000 0.04560  0.97470  0.33330  Biso   1.000  H
  H59      1.0000 0.45440  0.47470  0.16670  Biso   1.000  H
  H60      1.0000 0.95440  0.97470  0.16670  Biso   1.000  H
  H61      1.0000 0.45440  0.52530  0.66670  Biso   1.000  H
  H62      1.0000 0.95440  0.02530  0.66670  Biso   1.000  H
  H63      1.0000 0.54560  0.52530  0.83330  Biso   1.000  H
  H64      1.0000 0.04560  0.02530  0.83330  Biso   1.000  H
  C49      1.0000 0.50000  0.27060  0.25000  Biso   1.000  C
  C50      1.0000 0.00000  0.77060  0.25000  Biso   1.000  C
  C51      1.0000 0.50000  0.72940  0.75000  Biso   1.000  C
  C52      1.0000 0.00000  0.22940  0.75000  Biso   1.000  C
  H65      1.0000 0.46160  0.19410  0.25850  Biso   1.000  H
  H66      1.0000 0.96160  0.69410  0.25850  Biso   1.000  H
  H67      1.0000 0.53840  0.19410  0.24150  Biso   1.000  H
  H68      1.0000 0.03840  0.69410  0.24150  Biso   1.000  H
  H69      1.0000 0.53840  0.80590  0.74150  Biso   1.000  H
  H70      1.0000 0.03840  0.30590  0.74150  Biso   1.000  H
  H71      1.0000 0.46160  0.80590  0.75850  Biso   1.000  H
  H72      1.0000 0.96160  0.30590  0.75850  Biso   1.000  H
  Cl1      1.0000 0.15103  0.40901  0.35489  Biso   1.000  Cl
  Cl2      1.0000 0.65103  0.90901  0.35489  Biso   1.000  Cl
  Cl3      1.0000 0.84897  0.40901  0.14511  Biso   1.000  Cl
  Cl4      1.0000 0.34897  0.90901  0.14511  Biso   1.000  Cl
  Cl5      1.0000 0.84897  0.59099  0.64511  Biso   1.000  Cl
  Cl6      1.0000 0.34897  0.09099  0.64511  Biso   1.000  Cl
  Cl7      1.0000 0.15103  0.59099  0.85489  Biso   1.000  Cl
  Cl8      1.0000 0.65103  0.09099  0.85489  Biso   1.000  Cl
  O9       1.0000 0.18125  0.47070  0.44973  Biso   1.000  O
  O10      1.0000 0.68125  0.97070  0.44973  Biso   1.000  O
  O11      1.0000 0.81875  0.47070  0.05027  Biso   1.000  O
  O12      1.0000 0.31875  0.97070  0.05027  Biso   1.000  O
  O13      1.0000 0.81875  0.52930  0.55027  Biso   1.000  O
  O14      1.0000 0.31875  0.02930  0.55027  Biso   1.000  O
  O15      1.0000 0.18125  0.52930  0.94973  Biso   1.000  O
  O16      1.0000 0.68125  0.02930  0.94973  Biso   1.000  O
  O17      1.0000 0.16166  0.53610  0.27576  Biso   1.000  O
  O18      1.0000 0.66166  0.03610  0.27576  Biso   1.000  O
  O19      1.0000 0.83834  0.53610  0.22424  Biso   1.000  O
  O20      1.0000 0.33834  0.03610  0.22424  Biso   1.000  O
  O21      1.0000 0.83834  0.46390  0.72424  Biso   1.000  O
  O22      1.0000 0.33834  0.96390  0.72424  Biso   1.000  O
  O23      1.0000 0.16166  0.46390  0.77576  Biso   1.000  O
  O24      1.0000 0.66166  0.96390  0.77576  Biso   1.000  O
  O25      1.0000 0.18210  0.24570  0.32890  Biso   1.000  O
  O26      1.0000 0.68210  0.74570  0.32890  Biso   1.000  O
  O27      1.0000 0.81790  0.24570  0.17110  Biso   1.000  O
  O28      1.0000 0.31790  0.74570  0.17110  Biso   1.000  O
  O29      1.0000 0.81790  0.75430  0.67110  Biso   1.000  O
  O30      1.0000 0.31790  0.25430  0.67110  Biso   1.000  O
  O31      1.0000 0.18210  0.75430  0.82890  Biso   1.000  O
  O32      1.0000 0.68210  0.25430  0.82890  Biso   1.000  O
  O33      1.0000 0.08206  0.38660  0.36500  Biso   1.000  O
  O34      1.0000 0.58206  0.88660  0.36500  Biso   1.000  O
  O35      1.0000 0.91794  0.38660  0.13500  Biso   1.000  O
  O36      1.0000 0.41794  0.88660  0.13500  Biso   1.000  O
  O37      1.0000 0.91794  0.61340  0.63500  Biso   1.000  O
  O38      1.0000 0.41794  0.11340  0.63500  Biso   1.000  O
  O39      1.0000 0.08206  0.61340  0.86500  Biso   1.000  O
  O40      1.0000 0.58206  0.11340  0.86500  Biso   1.000  O
