data_image0
_cell_length_a       12.052
_cell_length_b       14.0863
_cell_length_c       16.425
_cell_angle_alpha    79.047
_cell_angle_beta     73.946
_cell_angle_gamma    82.334

_symmetry_space_group_name_H-M    "P 1"
_symmetry_int_tables_number       1

loop_
  _symmetry_equiv_pos_as_xyz
  'x, y, z'

loop_
  _atom_site_label
  _atom_site_occupancy
  _atom_site_fract_x
  _atom_site_fract_y
  _atom_site_fract_z
  _atom_site_thermal_displace_type
  _atom_site_B_iso_or_equiv
  _atom_site_type_symbol
  Cu1      1.0000 0.13012  0.82961  0.23945  Biso   1.000  Cu
  Cu2      1.0000 0.86988  0.17039  0.76055  Biso   1.000  Cu
  Cu3      1.0000 0.50000  0.50000  0.50000  Biso   1.000  Cu
  Cu4      1.0000 0.21245  0.22483  0.17257  Biso   1.000  Cu
  Cu5      1.0000 0.78755  0.77517  0.82743  Biso   1.000  Cu
  N1       1.0000 0.49520  0.48950  0.31880  Biso   1.000  N
  N2       1.0000 0.50480  0.51050  0.68120  Biso   1.000  N
  N3       1.0000 0.17650  0.37360  0.28160  Biso   1.000  N
  N4       1.0000 0.82350  0.62640  0.71840  Biso   1.000  N
  N5       1.0000 0.27470  0.67860  0.14880  Biso   1.000  N
  N6       1.0000 0.72530  0.32140  0.85120  Biso   1.000  N
  N7       1.0000 0.33840  0.42890  0.30000  Biso   1.000  N
  N8       1.0000 0.66160  0.57110  0.70000  Biso   1.000  N
  C1       1.0000 0.25110  0.44550  0.26410  Biso   1.000  C
  C2       1.0000 0.74890  0.55450  0.73590  Biso   1.000  C
  N9       1.0000 0.22600  0.52550  0.21240  Biso   1.000  N
  N10      1.0000 0.77400  0.47450  0.78760  Biso   1.000  N
  C3       1.0000 0.29790  0.59350  0.20070  Biso   1.000  C
  C4       1.0000 0.70210  0.40650  0.79930  Biso   1.000  C
  N11      1.0000 0.38710  0.58770  0.23350  Biso   1.000  N
  N12      1.0000 0.61290  0.41230  0.76650  Biso   1.000  N
  C5       1.0000 0.40350  0.50340  0.28110  Biso   1.000  C
  C6       1.0000 0.59650  0.49660  0.71890  Biso   1.000  C
  N13      1.0000 0.57210  0.58420  0.38910  Biso   1.000  N
  N14      1.0000 0.42790  0.41580  0.61090  Biso   1.000  N
  C7       1.0000 0.56090  0.56880  0.31350  Biso   1.000  C
  C8       1.0000 0.43910  0.43120  0.68650  Biso   1.000  C
  C9       1.0000 0.61060  0.62100  0.23610  Biso   1.000  C
  C10      1.0000 0.38940  0.37900  0.76390  Biso   1.000  C
  H1       1.0000 0.60180  0.60640  0.18420  Biso   1.000  H
  H2       1.0000 0.39820  0.39360  0.81580  Biso   1.000  H
  C11      1.0000 0.67440  0.69610  0.23550  Biso   1.000  C
  C12      1.0000 0.32560  0.30390  0.76450  Biso   1.000  C
  H3       1.0000 0.70770  0.73570  0.18300  Biso   1.000  H
  H4       1.0000 0.29230  0.26430  0.81700  Biso   1.000  H
  C13      1.0000 0.68900  0.71280  0.31190  Biso   1.000  C
  C14      1.0000 0.31100  0.28720  0.68810  Biso   1.000  C
  H5       1.0000 0.73290  0.76360  0.31270  Biso   1.000  H
  H6       1.0000 0.26710  0.23640  0.68730  Biso   1.000  H
  C15      1.0000 0.63910  0.65490  0.38600  Biso   1.000  C
  C16      1.0000 0.36090  0.34510  0.61400  Biso   1.000  C
  H7       1.0000 0.65220  0.66480  0.43810  Biso   1.000  H
  H8       1.0000 0.34780  0.33520  0.56190  Biso   1.000  H
  N15      1.0000 0.54610  0.38780  0.43540  Biso   1.000  N
  N16      1.0000 0.45390  0.61220  0.56460  Biso   1.000  N
  C17      1.0000 0.53200  0.39610  0.35680  Biso   1.000  C
  C18      1.0000 0.46800  0.60390  0.64320  Biso   1.000  C
  C19      1.0000 0.55830  0.32000  0.30960  Biso   1.000  C
  C20      1.0000 0.44170  0.68000  0.69040  Biso   1.000  C
  H9       1.0000 0.54780  0.32880  0.25340  Biso   1.000  H
  H10      1.0000 0.45220  0.67120  0.74660  Biso   1.000  H
  C21      1.0000 0.59950  0.23240  0.34690  Biso   1.000  C
  C22      1.0000 0.40050  0.76760  0.65310  Biso   1.000  C
  H11      1.0000 0.61630  0.17840  0.31720  Biso   1.000  H
  H12      1.0000 0.38370  0.82160  0.68280  Biso   1.000  H
  C23      1.0000 0.61660  0.22270  0.42800  Biso   1.000  C
  C24      1.0000 0.38340  0.77730  0.57200  Biso   1.000  C
  H13      1.0000 0.64540  0.16210  0.45460  Biso   1.000  H
  H14      1.0000 0.35460  0.83790  0.54540  Biso   1.000  H
  C25      1.0000 0.59200  0.30050  0.46890  Biso   1.000  C
  C26      1.0000 0.40800  0.69950  0.53110  Biso   1.000  C
  H15      1.0000 0.60740  0.29400  0.52340  Biso   1.000  H
  H16      1.0000 0.39260  0.70600  0.47660  Biso   1.000  H
  N17      1.0000 0.21680  0.20510  0.29470  Biso   1.000  N
  N18      1.0000 0.78320  0.79490  0.70530  Biso   1.000  N
  C27      1.0000 0.20110  0.28320  0.33280  Biso   1.000  C
  C28      1.0000 0.79890  0.71680  0.66720  Biso   1.000  C
  C29      1.0000 0.20420  0.27790  0.41620  Biso   1.000  C
  C30      1.0000 0.79580  0.72210  0.58380  Biso   1.000  C
  H17      1.0000 0.19080  0.33470  0.44200  Biso   1.000  H
  H18      1.0000 0.80920  0.66530  0.55800  Biso   1.000  H
  C31      1.0000 0.22730  0.18830  0.46180  Biso   1.000  C
  C32      1.0000 0.77270  0.81170  0.53820  Biso   1.000  C
  H19      1.0000 0.23150  0.18250  0.51950  Biso   1.000  H
  H20      1.0000 0.76850  0.81750  0.48050  Biso   1.000  H
  C33      1.0000 0.24440  0.10660  0.42270  Biso   1.000  C
  C34      1.0000 0.75560  0.89340  0.57730  Biso   1.000  C
  H21      1.0000 0.26150  0.04410  0.45270  Biso   1.000  H
  H22      1.0000 0.73850  0.95590  0.54730  Biso   1.000  H
  C35      1.0000 0.23600  0.11830  0.34020  Biso   1.000  C
  C36      1.0000 0.76400  0.88170  0.65980  Biso   1.000  C
  H23      1.0000 0.24410  0.06220  0.31400  Biso   1.000  H
  H24      1.0000 0.75590  0.93780  0.68600  Biso   1.000  H
  N19      1.0000 0.07330  0.31730  0.20260  Biso   1.000  N
  N20      1.0000 0.92670  0.68270  0.79740  Biso   1.000  N
  C37      1.0000 0.07920  0.38590  0.24730  Biso   1.000  C
  C38      1.0000 0.92080  0.61410  0.75270  Biso   1.000  C
  C39      1.0000 0.99630  0.46020  0.26070  Biso   1.000  C
  C40      1.0000 0.00370  0.53980  0.73930  Biso   1.000  C
  H25      1.0000 0.00330  0.50810  0.29210  Biso   1.000  H
  H26      1.0000 0.99670  0.49190  0.70790  Biso   1.000  H
  C41      1.0000 0.90230  0.46530  0.22850  Biso   1.000  C
  C42      1.0000 0.09770  0.53470  0.77150  Biso   1.000  C
  H27      1.0000 0.84430  0.51790  0.23600  Biso   1.000  H
  H28      1.0000 0.15570  0.48210  0.76400  Biso   1.000  H
  C43      1.0000 0.89220  0.39350  0.18490  Biso   1.000  C
  C44      1.0000 0.10780  0.60650  0.81510  Biso   1.000  C
  H29      1.0000 0.82650  0.39490  0.16330  Biso   1.000  H
  H30      1.0000 0.17350  0.60510  0.83670  Biso   1.000  H
  C45      1.0000 0.97870  0.32040  0.17360  Biso   1.000  C
  C46      1.0000 0.02130  0.67960  0.82640  Biso   1.000  C
  H31      1.0000 0.97200  0.27030  0.14430  Biso   1.000  H
  H32      1.0000 0.02800  0.72970  0.85570  Biso   1.000  H
  N21      1.0000 0.09540  0.76380  0.15270  Biso   1.000  N
  N22      1.0000 0.90460  0.23620  0.84730  Biso   1.000  N
  C47      1.0000 0.17170  0.69450  0.12120  Biso   1.000  C
  C48      1.0000 0.82830  0.30550  0.87880  Biso   1.000  C
  C49      1.0000 0.15130  0.64020  0.06640  Biso   1.000  C
  C50      1.0000 0.84870  0.35980  0.93360  Biso   1.000  C
  H33      1.0000 0.20750  0.59130  0.04400  Biso   1.000  H
  H34      1.0000 0.79250  0.40870  0.95600  Biso   1.000  H
  C51      1.0000 0.04750  0.65850  0.04520  Biso   1.000  C
  C52      1.0000 0.95250  0.34150  0.95480  Biso   1.000  C
  H35      1.0000 0.02950  0.61980  0.00990  Biso   1.000  H
  H36      1.0000 0.97050  0.38020  0.99010  Biso   1.000  H
  C53      1.0000 0.96890  0.73290  0.07470  Biso   1.000  C
  C54      1.0000 0.03110  0.26710  0.92530  Biso   1.000  C
  H37      1.0000 0.89840  0.74830  0.05800  Biso   1.000  H
  H38      1.0000 0.10160  0.25170  0.94200  Biso   1.000  H
  C55      1.0000 0.99560  0.78370  0.12900  Biso   1.000  C
  C56      1.0000 0.00440  0.21630  0.87100  Biso   1.000  C
  H39      1.0000 0.94200  0.83460  0.15050  Biso   1.000  H
  H40      1.0000 0.05800  0.16540  0.84950  Biso   1.000  H
  N23      1.0000 0.29070  0.83630  0.16620  Biso   1.000  N
  N24      1.0000 0.70930  0.16370  0.83380  Biso   1.000  N
  C57      1.0000 0.34380  0.75790  0.13250  Biso   1.000  C
  C58      1.0000 0.65620  0.24210  0.86750  Biso   1.000  C
  C59      1.0000 0.45670  0.75330  0.08400  Biso   1.000  C
  C60      1.0000 0.54330  0.24670  0.91600  Biso   1.000  C
  H41      1.0000 0.49140  0.69630  0.06090  Biso   1.000  H
  H42      1.0000 0.50860  0.30370  0.93910  Biso   1.000  H
  C61      1.0000 0.51890  0.83330  0.06960  Biso   1.000  C
  C62      1.0000 0.48110  0.16670  0.93040  Biso   1.000  C
  H43      1.0000 0.59770  0.83190  0.03750  Biso   1.000  H
  H44      1.0000 0.40230  0.16810  0.96250  Biso   1.000  H
  C63      1.0000 0.46450  0.91440  0.10250  Biso   1.000  C
  C64      1.0000 0.53550  0.08560  0.89750  Biso   1.000  C
  H45      1.0000 0.50500  0.97060  0.09270  Biso   1.000  H
  H46      1.0000 0.49500  0.02940  0.90730  Biso   1.000  H
  C65      1.0000 0.35150  0.91460  0.14950  Biso   1.000  C
  C66      1.0000 0.64850  0.08540  0.85050  Biso   1.000  C
  H47      1.0000 0.31450  0.97190  0.17130  Biso   1.000  H
  H48      1.0000 0.68550  0.02810  0.82870  Biso   1.000  H
  N25      1.0000 0.30690  0.52340  0.47780  Biso   1.000  N
  N26      1.0000 0.69310  0.47660  0.52220  Biso   1.000  N
  C67      1.0000 0.21300  0.55320  0.49420  Biso   1.000  C
  C68      1.0000 0.78700  0.44680  0.50580  Biso   1.000  C
  C69      1.0000 0.09480  0.59160  0.51510  Biso   1.000  C
  C70      1.0000 0.90520  0.40840  0.48490  Biso   1.000  C
  H49      1.0000 0.04860  0.54520  0.55950  Biso   1.000  H
  H50      1.0000 0.95140  0.45480  0.44050  Biso   1.000  H
  H51      1.0000 0.06560  0.60290  0.46370  Biso   1.000  H
  H52      1.0000 0.93440  0.39710  0.53630  Biso   1.000  H
  H53      1.0000 0.08900  0.65300  0.53640  Biso   1.000  H
  H54      1.0000 0.91100  0.34700  0.46360  Biso   1.000  H
  N27      1.0000 0.23910  0.35540  0.02040  Biso   1.000  N
  N28      1.0000 0.76090  0.64460  0.97960  Biso   1.000  N
  O1       1.0000 0.21830  0.26260  0.04950  Biso   1.000  O
  O2       1.0000 0.78170  0.73740  0.95050  Biso   1.000  O
  O3       1.0000 0.26170  0.40220  0.06940  Biso   1.000  O
  O4       1.0000 0.73830  0.59780  0.93060  Biso   1.000  O
  O5       1.0000 0.23380  0.39240  0.94830  Biso   1.000  O
  O6       1.0000 0.76620  0.60760  0.05170  Biso   1.000  O
  N29      1.0000 0.44730  0.18600  0.14610  Biso   1.000  N
  N30      1.0000 0.55270  0.81400  0.85390  Biso   1.000  N
  O7       1.0000 0.36040  0.14320  0.14440  Biso   1.000  O
  O8       1.0000 0.63960  0.85680  0.85560  Biso   1.000  O
  O9       1.0000 0.43020  0.27060  0.15730  Biso   1.000  O
  O10      1.0000 0.56980  0.72940  0.84270  Biso   1.000  O
  O11      1.0000 0.54200  0.14000  0.13620  Biso   1.000  O
  O12      1.0000 0.45800  0.86000  0.86380  Biso   1.000  O
  N31      1.0000 0.07120  0.05540  0.15770  Biso   1.000  N
  N32      1.0000 0.92880  0.94460  0.84230  Biso   1.000  N
  O13      1.0000 0.13310  0.08280  0.19690  Biso   1.000  O
  O14      1.0000 0.86690  0.91720  0.80310  Biso   1.000  O
  O15      1.0000 0.05060  0.96850  0.17210  Biso   1.000  O
  O16      1.0000 0.94940  0.03150  0.82790  Biso   1.000  O
  O17      1.0000 0.03400  0.11240  0.10390  Biso   1.000  O
  O18      1.0000 0.96600  0.88760  0.89610  Biso   1.000  O
  N33      1.0000 0.97940  0.70780  0.34790  Biso   1.000  N
  N34      1.0000 0.02060  0.29220  0.65210  Biso   1.000  N
  O19      1.0000 0.06950  0.65700  0.32460  Biso   1.000  O
  O20      1.0000 0.93050  0.34300  0.67540  Biso   1.000  O
  O21      1.0000 0.97620  0.80000  0.31910  Biso   1.000  O
  O22      1.0000 0.02380  0.20000  0.68090  Biso   1.000  O
  O23      1.0000 0.89100  0.67470  0.39700  Biso   1.000  O
  O24      1.0000 0.10900  0.32530  0.60300  Biso   1.000  O
  N35      1.0000 0.23380  0.83910  0.36790  Biso   1.000  N
  N36      1.0000 0.76620  0.16090  0.63210  Biso   1.000  N
  O25      1.0000 0.16590  0.89110  0.32510  Biso   1.000  O
  O26      1.0000 0.83410  0.10890  0.67490  Biso   1.000  O
  O27      1.0000 0.26510  0.75560  0.35580  Biso   1.000  O
  O28      1.0000 0.73490  0.24440  0.64420  Biso   1.000  O
  O29      1.0000 0.26260  0.87530  0.41930  Biso   1.000  O
  O30      1.0000 0.73740  0.12470  0.58070  Biso   1.000  O
  N37      1.0000 0.74220  0.91550  0.13100  Biso   1.000  N
  N38      1.0000 0.25780  0.08450  0.86900  Biso   1.000  N
  C71      1.0000 0.77390  0.98610  0.08840  Biso   1.000  C
  C72      1.0000 0.22610  0.01390  0.91160  Biso   1.000  C
  C73      1.0000 0.81180  0.07390  0.03870  Biso   1.000  C
  C74      1.0000 0.18820  0.92610  0.96130  Biso   1.000  C
  H55      1.0000 0.74680  0.12270  0.04090  Biso   1.000  H
  H56      1.0000 0.25320  0.87730  0.95910  Biso   1.000  H
  H57      1.0000 0.84680  0.06360  0.97980  Biso   1.000  H
  H58      1.0000 0.15320  0.93640  0.02020  Biso   1.000  H
  H59      1.0000 0.86980  0.09490  0.06150  Biso   1.000  H
  H60      1.0000 0.13020  0.90510  0.93850  Biso   1.000  H
  N39      1.0000 0.64920  0.97420  0.40000  Biso   1.000  N
  N40      1.0000 0.35080  0.02580  0.60000  Biso   1.000  N
  C75      1.0000 0.58980  0.96230  0.36020  Biso   1.000  C
  C76      1.0000 0.41020  0.03770  0.63980  Biso   1.000  C
  C77      1.0000 0.51910  0.95070  0.30850  Biso   1.000  C
  C78      1.0000 0.48090  0.04930  0.69150  Biso   1.000  C
  H61      1.0000 0.52090  0.00700  0.26350  Biso   1.000  H
  H62      1.0000 0.47910  0.99300  0.73650  Biso   1.000  H
  H63      1.0000 0.43930  0.94530  0.34400  Biso   1.000  H
  H64      1.0000 0.56070  0.05470  0.65600  Biso   1.000  H
  H65      1.0000 0.54640  0.89210  0.28340  Biso   1.000  H
  H66      1.0000 0.45360  0.10790  0.71660  Biso   1.000  H
  N41      1.0000 0.93290  0.21880  0.39040  Biso   1.000  N
  N42      1.0000 0.06710  0.78120  0.60960  Biso   1.000  N
  C79      1.0000 0.93120  0.13810  0.38650  Biso   1.000  C
  C80      1.0000 0.06880  0.86190  0.61350  Biso   1.000  C
  C81      1.0000 0.93000  0.03920  0.38550  Biso   1.000  C
  C82      1.0000 0.07000  0.96080  0.61450  Biso   1.000  C
  H67      1.0000 0.91900  0.00350  0.44260  Biso   1.000  H
  H68      1.0000 0.08100  0.99650  0.55740  Biso   1.000  H
  H69      1.0000 0.00400  0.01690  0.34850  Biso   1.000  H
  H70      1.0000 0.99600  0.98310  0.65150  Biso   1.000  H
  H71      1.0000 0.86740  0.03090  0.36080  Biso   1.000  H
  H72      1.0000 0.13260  0.96910  0.63920  Biso   1.000  H
  N43      1.0000 0.51700  0.51100  0.97820  Biso   1.000  N
  N44      1.0000 0.48300  0.48900  0.02180  Biso   1.000  N
  C83      1.0000 0.52890  0.47880  0.04790  Biso   1.000  C
  C84      1.0000 0.47110  0.52120  0.95210  Biso   1.000  C
  C85      1.0000 0.59630  0.44750  0.10760  Biso   1.000  C
  C86      1.0000 0.40370  0.55250  0.89240  Biso   1.000  C
  H73      1.0000 0.62980  0.37950  0.09890  Biso   1.000  H
  H74      1.0000 0.37020  0.62050  0.90110  Biso   1.000  H
  H75      1.0000 0.54760  0.44490  0.16440  Biso   1.000  H
  H76      1.0000 0.45240  0.55510  0.83560  Biso   1.000  H
  H77      1.0000 0.65820  0.48760  0.09570  Biso   1.000  H
  H78      1.0000 0.34180  0.51240  0.90430  Biso   1.000  H
