data_image0
_cell_length_a       13.803
_cell_length_b       19.089
_cell_length_c       20.051
_cell_angle_alpha    69.255
_cell_angle_beta     77.065
_cell_angle_gamma    72.71

_symmetry_space_group_name_H-M    "P 1"
_symmetry_int_tables_number       1

loop_
  _symmetry_equiv_pos_as_xyz
  'x, y, z'

loop_
  _atom_site_label
  _atom_site_occupancy
  _atom_site_fract_x
  _atom_site_fract_y
  _atom_site_fract_z
  _atom_site_thermal_displace_type
  _atom_site_B_iso_or_equiv
  _atom_site_type_symbol
  Cu1      1.0000 0.16998  0.22950  0.87175  Biso   1.000  Cu
  Cu2      1.0000 0.83002  0.77050  0.12825  Biso   1.000  Cu
  Cu3      1.0000 0.72976  0.20481  0.48858  Biso   1.000  Cu
  Cu4      1.0000 0.27024  0.79519  0.51142  Biso   1.000  Cu
  P1       1.0000 0.05579  0.25725  0.96696  Biso   1.000  P
  P2       1.0000 0.94421  0.74275  0.03304  Biso   1.000  P
  P3       1.0000 0.21601  0.33527  0.78804  Biso   1.000  P
  P4       1.0000 0.78399  0.66473  0.21196  Biso   1.000  P
  P5       1.0000 0.81736  0.24126  0.37583  Biso   1.000  P
  P6       1.0000 0.18264  0.75874  0.62417  Biso   1.000  P
  P7       1.0000 0.63726  0.11980  0.50280  Biso   1.000  P
  P8       1.0000 0.36274  0.88020  0.49720  Biso   1.000  P
  N1       1.0000 0.10260  0.17440  0.82620  Biso   1.000  N
  N2       1.0000 0.89740  0.82560  0.17380  Biso   1.000  N
  N3       1.0000 0.29430  0.14530  0.91400  Biso   1.000  N
  N4       1.0000 0.70570  0.85470  0.08600  Biso   1.000  N
  N5       1.0000 0.82500  0.17640  0.56610  Biso   1.000  N
  N6       1.0000 0.17500  0.82360  0.43390  Biso   1.000  N
  N7       1.0000 0.63800  0.30830  0.50210  Biso   1.000  N
  N8       1.0000 0.36200  0.69170  0.49790  Biso   1.000  N
  O1       1.0000 0.22020  0.34850  0.92780  Biso   1.000  O
  O2       1.0000 0.77980  0.65150  0.07220  Biso   1.000  O
  O3       1.0000 0.61730  0.22430  0.35923  Biso   1.000  O
  O4       1.0000 0.38270  0.77570  0.64077  Biso   1.000  O
  B1       1.0000 0.46560  0.81590  0.87500  Biso   1.000  B
  B2       1.0000 0.53440  0.18410  0.12500  Biso   1.000  B
  B3       1.0000 0.20350  0.57980  0.34520  Biso   1.000  B
  B4       1.0000 0.79650  0.42020  0.65480  Biso   1.000  B
  F1       1.0000 0.41290  0.89340  0.86180  Biso   1.000  F
  F2       1.0000 0.58710  0.10660  0.13820  Biso   1.000  F
  F3       1.0000 0.39080  0.77650  0.88640  Biso   1.000  F
  F4       1.0000 0.60920  0.22350  0.11360  Biso   1.000  F
  F5       1.0000 0.51450  0.79340  0.93420  Biso   1.000  F
  F6       1.0000 0.48550  0.20660  0.06580  Biso   1.000  F
  F7       1.0000 0.53260  0.80640  0.81670  Biso   1.000  F
  F8       1.0000 0.46740  0.19360  0.18330  Biso   1.000  F
  F9       1.0000 0.17400  0.63340  0.29670  Biso   1.000  F
  F10      1.0000 0.82600  0.36660  0.70330  Biso   1.000  F
  F11      1.0000 0.17210  0.59390  0.40570  Biso   1.000  F
  F12      1.0000 0.82790  0.40610  0.59430  Biso   1.000  F
  F13      1.0000 0.14700  0.53140  0.35130  Biso   1.000  F
  F14      1.0000 0.85300  0.46860  0.64870  Biso   1.000  F
  F15      1.0000 0.30520  0.54760  0.33680  Biso   1.000  F
  F16      1.0000 0.69480  0.45240  0.66320  Biso   1.000  F
  C1       1.0000 0.00170  0.17460  0.02350  Biso   1.000  C
  C2       1.0000 0.99830  0.82540  0.97650  Biso   1.000  C
  C3       1.0000 0.06970  0.10200  0.04120  Biso   1.000  C
  C4       1.0000 0.93030  0.89800  0.95880  Biso   1.000  C
  H1       1.0000 0.13980  0.09730  0.02830  Biso   1.000  H
  H2       1.0000 0.86020  0.90270  0.97170  Biso   1.000  H
  C5       1.0000 0.03160  0.03640  0.07840  Biso   1.000  C
  C6       1.0000 0.96840  0.96360  0.92160  Biso   1.000  C
  H3       1.0000 0.07730  0.98840  0.09090  Biso   1.000  H
  H4       1.0000 0.92270  0.01160  0.90910  Biso   1.000  H
  C7       1.0000 0.92950  0.04100  0.09690  Biso   1.000  C
  C8       1.0000 0.07050  0.95900  0.90310  Biso   1.000  C
  H5       1.0000 0.90570  0.99650  0.12080  Biso   1.000  H
  H6       1.0000 0.09430  0.00350  0.87920  Biso   1.000  H
  C9       1.0000 0.86230  0.11120  0.08000  Biso   1.000  C
  C10      1.0000 0.13770  0.88880  0.92000  Biso   1.000  C
  H7       1.0000 0.79240  0.11440  0.09240  Biso   1.000  H
  H8       1.0000 0.20760  0.88560  0.90760  Biso   1.000  H
  C11      1.0000 0.89650  0.17840  0.04450  Biso   1.000  C
  C12      1.0000 0.10350  0.82160  0.95550  Biso   1.000  C
  H9       1.0000 0.84960  0.22600  0.03470  Biso   1.000  H
  H10      1.0000 0.15040  0.77400  0.96530  Biso   1.000  H
  C13      1.0000 0.94420  0.33850  0.95010  Biso   1.000  C
  C14      1.0000 0.05580  0.66150  0.04990  Biso   1.000  C
  C15      1.0000 0.91510  0.37050  0.88130  Biso   1.000  C
  C16      1.0000 0.08490  0.62950  0.11870  Biso   1.000  C
  H11      1.0000 0.95370  0.35090  0.84460  Biso   1.000  H
  H12      1.0000 0.04630  0.64910  0.15540  Biso   1.000  H
  C17      1.0000 0.82860  0.43180  0.86660  Biso   1.000  C
  C18      1.0000 0.17140  0.56820  0.13340  Biso   1.000  C
  H13      1.0000 0.80920  0.45200  0.82070  Biso   1.000  H
  H14      1.0000 0.19080  0.54800  0.17930  Biso   1.000  H
  C19      1.0000 0.77200  0.46210  0.92090  Biso   1.000  C
  C20      1.0000 0.22800  0.53790  0.07910  Biso   1.000  C
  H15      1.0000 0.71530  0.50340  0.91110  Biso   1.000  H
  H16      1.0000 0.28470  0.49660  0.08890  Biso   1.000  H
  C21      1.0000 0.79940  0.43160  0.98890  Biso   1.000  C
  C22      1.0000 0.20060  0.56840  0.01110  Biso   1.000  C
  H17      1.0000 0.76090  0.45190  0.02520  Biso   1.000  H
  H18      1.0000 0.23910  0.54810  0.97480  Biso   1.000  H
  C23      1.0000 0.88510  0.36990  0.00380  Biso   1.000  C
  C24      1.0000 0.11490  0.63010  0.99620  Biso   1.000  C
  H19      1.0000 0.90310  0.34940  0.05010  Biso   1.000  H
  H20      1.0000 0.09690  0.65060  0.94990  Biso   1.000  H
  C25      1.0000 0.11720  0.27610  0.02910  Biso   1.000  C
  C26      1.0000 0.88280  0.72390  0.97090  Biso   1.000  C
  C27      1.0000 0.09780  0.24490  0.10360  Biso   1.000  C
  C28      1.0000 0.90220  0.75510  0.89640  Biso   1.000  C
  H21      1.0000 0.04800  0.21670  0.12330  Biso   1.000  H
  H22      1.0000 0.95200  0.78330  0.87670  Biso   1.000  H
  C29      1.0000 0.15070  0.25490  0.14850  Biso   1.000  C
  C30      1.0000 0.84930  0.74510  0.85150  Biso   1.000  C
  H23      1.0000 0.13500  0.23470  0.19810  Biso   1.000  H
  H24      1.0000 0.86500  0.76530  0.80190  Biso   1.000  H
  C31      1.0000 0.22520  0.29380  0.12160  Biso   1.000  C
  C32      1.0000 0.77480  0.70620  0.87840  Biso   1.000  C
  H25      1.0000 0.26250  0.29800  0.15280  Biso   1.000  H
  H26      1.0000 0.73750  0.70200  0.84720  Biso   1.000  H
  C33      1.0000 0.24710  0.32790  0.04730  Biso   1.000  C
  C34      1.0000 0.75290  0.67210  0.95270  Biso   1.000  C
  H27      1.0000 0.29700  0.35610  0.02850  Biso   1.000  H
  H28      1.0000 0.70300  0.64390  0.97150  Biso   1.000  H
  C35      1.0000 0.19170  0.31820  0.00290  Biso   1.000  C
  C36      1.0000 0.80830  0.68180  0.99710  Biso   1.000  C
  C37      1.0000 0.15250  0.41430  0.88940  Biso   1.000  C
  C38      1.0000 0.84750  0.58570  0.11060  Biso   1.000  C
  C39      1.0000 0.09360  0.47020  0.92030  Biso   1.000  C
  C40      1.0000 0.90640  0.52980  0.07970  Biso   1.000  C
  H29      1.0000 0.09770  0.46550  0.96740  Biso   1.000  H
  H30      1.0000 0.90230  0.53450  0.03260  Biso   1.000  H
  C41      1.0000 0.02740  0.53410  0.87910  Biso   1.000  C
  C42      1.0000 0.97260  0.46590  0.12090  Biso   1.000  C
  H31      1.0000 0.98700  0.57230  0.89900  Biso   1.000  H
  H32      1.0000 0.01300  0.42770  0.10100  Biso   1.000  H
  C43      1.0000 0.02190  0.54070  0.80940  Biso   1.000  C
  C44      1.0000 0.97810  0.45930  0.19060  Biso   1.000  C
  H33      1.0000 0.97780  0.58320  0.78240  Biso   1.000  H
  H34      1.0000 0.02220  0.41680  0.21760  Biso   1.000  H
  C45      1.0000 0.08230  0.48390  0.77910  Biso   1.000  C
  C46      1.0000 0.91770  0.51610  0.22090  Biso   1.000  C
  H35      1.0000 0.07830  0.48880  0.73190  Biso   1.000  H
  H36      1.0000 0.92170  0.51120  0.26810  Biso   1.000  H
  C47      1.0000 0.14900  0.41930  0.81920  Biso   1.000  C
  C48      1.0000 0.85100  0.58070  0.18080  Biso   1.000  C
  C49      1.0000 0.35230  0.33360  0.77450  Biso   1.000  C
  C50      1.0000 0.64770  0.66640  0.22550  Biso   1.000  C
  C51      1.0000 0.38810  0.39790  0.76610  Biso   1.000  C
  C52      1.0000 0.61190  0.60210  0.23390  Biso   1.000  C
  H37      1.0000 0.34180  0.44320  0.77060  Biso   1.000  H
  H38      1.0000 0.65820  0.55680  0.22940  Biso   1.000  H
  C53      1.0000 0.49230  0.39480  0.75110  Biso   1.000  C
  C54      1.0000 0.50770  0.60520  0.24890  Biso   1.000  C
  H39      1.0000 0.51540  0.43800  0.74520  Biso   1.000  H
  H40      1.0000 0.48460  0.56200  0.25480  Biso   1.000  H
  C55      1.0000 0.56180  0.32720  0.74480  Biso   1.000  C
  C56      1.0000 0.43820  0.67280  0.25520  Biso   1.000  C
  H41      1.0000 0.63160  0.32480  0.73530  Biso   1.000  H
  H42      1.0000 0.36840  0.67520  0.26470  Biso   1.000  H
  C57      1.0000 0.52740  0.26320  0.75270  Biso   1.000  C
  C58      1.0000 0.47260  0.73680  0.24730  Biso   1.000  C
  H43      1.0000 0.57370  0.21820  0.74750  Biso   1.000  H
  H44      1.0000 0.42630  0.78180  0.25250  Biso   1.000  H
  C59      1.0000 0.42310  0.26660  0.76850  Biso   1.000  C
  C60      1.0000 0.57690  0.73340  0.23150  Biso   1.000  C
  H45      1.0000 0.40030  0.22310  0.77510  Biso   1.000  H
  H46      1.0000 0.59970  0.77690  0.22490  Biso   1.000  H
  C61      1.0000 0.18800  0.36720  0.69480  Biso   1.000  C
  C62      1.0000 0.81200  0.63280  0.30520  Biso   1.000  C
  C63      1.0000 0.25080  0.40410  0.63640  Biso   1.000  C
  C64      1.0000 0.74920  0.59590  0.36360  Biso   1.000  C
  H47      1.0000 0.30960  0.41310  0.64390  Biso   1.000  H
  H48      1.0000 0.69040  0.58690  0.35610  Biso   1.000  H
  C65      1.0000 0.22590  0.42770  0.56670  Biso   1.000  C
  C66      1.0000 0.77410  0.57230  0.43330  Biso   1.000  C
  H49      1.0000 0.26820  0.45210  0.52790  Biso   1.000  H
  H50      1.0000 0.73180  0.54790  0.47210  Biso   1.000  H
  C67      1.0000 0.13990  0.41500  0.55570  Biso   1.000  C
  C68      1.0000 0.86010  0.58500  0.44430  Biso   1.000  C
  H51      1.0000 0.12380  0.43060  0.50920  Biso   1.000  H
  H52      1.0000 0.87620  0.56940  0.49080  Biso   1.000  H
  C69      1.0000 0.07620  0.37930  0.61260  Biso   1.000  C
  C70      1.0000 0.92380  0.62070  0.38740  Biso   1.000  C
  H53      1.0000 0.01690  0.37150  0.60470  Biso   1.000  H
  H54      1.0000 0.98310  0.62850  0.39530  Biso   1.000  H
  C71      1.0000 0.10130  0.35500  0.68190  Biso   1.000  C
  C72      1.0000 0.89870  0.64500  0.31810  Biso   1.000  C
  H55      1.0000 0.05880  0.33020  0.72030  Biso   1.000  H
  H56      1.0000 0.94120  0.66980  0.27970  Biso   1.000  H
  C73      1.0000 0.31250  0.07130  0.91690  Biso   1.000  C
  C74      1.0000 0.68750  0.92870  0.08310  Biso   1.000  C
  H57      1.0000 0.26960  0.05800  0.89610  Biso   1.000  H
  H58      1.0000 0.73040  0.94200  0.10390  Biso   1.000  H
  C75      1.0000 0.39110  0.01390  0.94900  Biso   1.000  C
  C76      1.0000 0.60890  0.98610  0.05100  Biso   1.000  C
  H59      1.0000 0.40020  0.96370  0.94870  Biso   1.000  H
  H60      1.0000 0.59980  0.03630  0.05130  Biso   1.000  H
  C77      1.0000 0.45710  0.03020  0.98190  Biso   1.000  C
  C78      1.0000 0.54290  0.96980  0.01810  Biso   1.000  C
  C79      1.0000 0.43840  0.10650  0.97910  Biso   1.000  C
  C80      1.0000 0.56160  0.89350  0.02090  Biso   1.000  C
  H61      1.0000 0.48000  0.12120  0.99980  Biso   1.000  H
  H62      1.0000 0.52000  0.87880  0.00020  Biso   1.000  H
  C81      1.0000 0.35710  0.16150  0.94530  Biso   1.000  C
  C82      1.0000 0.64290  0.83850  0.05470  Biso   1.000  C
  H63      1.0000 0.34610  0.21230  0.94460  Biso   1.000  H
  H64      1.0000 0.65390  0.78770  0.05540  Biso   1.000  H
  C83      1.0000 0.15030  0.15420  0.76770  Biso   1.000  C
  C84      1.0000 0.84970  0.84580  0.23230  Biso   1.000  C
  H65      1.0000 0.22150  0.14210  0.76020  Biso   1.000  H
  H66      1.0000 0.77850  0.85790  0.23980  Biso   1.000  H
  C85      1.0000 0.09880  0.15050  0.71750  Biso   1.000  C
  C86      1.0000 0.90120  0.84950  0.28250  Biso   1.000  C
  H67      1.0000 0.13530  0.13590  0.67760  Biso   1.000  H
  H68      1.0000 0.86470  0.86410  0.32240  Biso   1.000  H
  C87      1.0000 0.99210  0.16870  0.72710  Biso   1.000  C
  C88      1.0000 0.00790  0.83130  0.27290  Biso   1.000  C
  C89      1.0000 0.94220  0.18640  0.78890  Biso   1.000  C
  C90      1.0000 0.05780  0.81360  0.21110  Biso   1.000  C
  H69      1.0000 0.87110  0.19750  0.79820  Biso   1.000  H
  H70      1.0000 0.12890  0.80250  0.20180  Biso   1.000  H
  C91      1.0000 0.99970  0.18740  0.83700  Biso   1.000  C
  C92      1.0000 0.00030  0.81260  0.16300  Biso   1.000  C
  H71      1.0000 0.96520  0.19760  0.87930  Biso   1.000  H
  H72      1.0000 0.03480  0.80240  0.12070  Biso   1.000  H
  C93      1.0000 0.91800  0.19260  0.54940  Biso   1.000  C
  C94      1.0000 0.08200  0.80740  0.45060  Biso   1.000  C
  H73      1.0000 0.94600  0.20580  0.50120  Biso   1.000  H
  H74      1.0000 0.05400  0.79420  0.49880  Biso   1.000  H
  C95      1.0000 0.97380  0.19090  0.59900  Biso   1.000  C
  C96      1.0000 0.02620  0.80910  0.40100  Biso   1.000  C
  H75      1.0000 0.03730  0.20300  0.58410  Biso   1.000  H
  H76      1.0000 0.96270  0.79700  0.41590  Biso   1.000  H
  C97      1.0000 0.93430  0.17100  0.67160  Biso   1.000  C
  C98      1.0000 0.06570  0.82900  0.32840  Biso   1.000  C
  C99      1.0000 0.83810  0.15400  0.68980  Biso   1.000  C
  C100     1.0000 0.16190  0.84600  0.31020  Biso   1.000  C
  H77      1.0000 0.80820  0.14110  0.73760  Biso   1.000  H
  H78      1.0000 0.19180  0.85890  0.26240  Biso   1.000  H
  C101     1.0000 0.78770  0.15680  0.63580  Biso   1.000  C
  C102     1.0000 0.21230  0.84320  0.36420  Biso   1.000  C
  H79      1.0000 0.72440  0.14430  0.64900  Biso   1.000  H
  H80      1.0000 0.27560  0.85570  0.35100  Biso   1.000  H
  C103     1.0000 0.65840  0.34470  0.54130  Biso   1.000  C
  C104     1.0000 0.34160  0.65530  0.45870  Biso   1.000  C
  H81      1.0000 0.71090  0.31890  0.56960  Biso   1.000  H
  H82      1.0000 0.28910  0.68110  0.43040  Biso   1.000  H
  C105     1.0000 0.60640  0.41830  0.54250  Biso   1.000  C
  C106     1.0000 0.39360  0.58170  0.45750  Biso   1.000  C
  H83      1.0000 0.62400  0.44020  0.57150  Biso   1.000  H
  H84      1.0000 0.37600  0.55980  0.42850  Biso   1.000  H
  C107     1.0000 0.52850  0.45960  0.50080  Biso   1.000  C
  C108     1.0000 0.47150  0.54040  0.49920  Biso   1.000  C
  C109     1.0000 0.50570  0.42180  0.46030  Biso   1.000  C
  C110     1.0000 0.49430  0.57820  0.53970  Biso   1.000  C
  H85      1.0000 0.45350  0.44650  0.43160  Biso   1.000  H
  H86      1.0000 0.54650  0.55350  0.56840  Biso   1.000  H
  C111     1.0000 0.56080  0.34770  0.46290  Biso   1.000  C
  C112     1.0000 0.43920  0.65230  0.53710  Biso   1.000  C
  H87      1.0000 0.54320  0.32360  0.43590  Biso   1.000  H
  H88      1.0000 0.45680  0.67640  0.56410  Biso   1.000  H
  C113     1.0000 0.91290  0.29440  0.36910  Biso   1.000  C
  C114     1.0000 0.08710  0.70560  0.63090  Biso   1.000  C
  C115     1.0000 0.88030  0.35800  0.39460  Biso   1.000  C
  C116     1.0000 0.11970  0.64200  0.60540  Biso   1.000  C
  H89      1.0000 0.81060  0.37740  0.40630  Biso   1.000  H
  H90      1.0000 0.18940  0.62260  0.59370  Biso   1.000  H
  C117     1.0000 0.95030  0.39260  0.40280  Biso   1.000  C
  C118     1.0000 0.04970  0.60740  0.59720  Biso   1.000  C
  H91      1.0000 0.92800  0.43500  0.41980  Biso   1.000  H
  H92      1.0000 0.07200  0.56500  0.58020  Biso   1.000  H
  C119     1.0000 0.05410  0.36330  0.38540  Biso   1.000  C
  C120     1.0000 0.94590  0.63670  0.61460  Biso   1.000  C
  H93      1.0000 0.10150  0.38580  0.39130  Biso   1.000  H
  H94      1.0000 0.89850  0.61420  0.60870  Biso   1.000  H
  C121     1.0000 0.08730  0.30150  0.35970  Biso   1.000  C
  C122     1.0000 0.91270  0.69850  0.64030  Biso   1.000  C
  H95      1.0000 0.15710  0.28250  0.34810  Biso   1.000  H
  H96      1.0000 0.84290  0.71750  0.65190  Biso   1.000  H
  C123     1.0000 0.01780  0.26660  0.35080  Biso   1.000  C
  C124     1.0000 0.98220  0.73340  0.64920  Biso   1.000  C
  H97      1.0000 0.04100  0.22500  0.33270  Biso   1.000  H
  H98      1.0000 0.95900  0.77500  0.66730  Biso   1.000  H
  C125     1.0000 0.89020  0.16140  0.34080  Biso   1.000  C
  C126     1.0000 0.10980  0.83860  0.65920  Biso   1.000  C
  C127     1.0000 0.91860  0.08840  0.38850  Biso   1.000  C
  C128     1.0000 0.08140  0.91160  0.61150  Biso   1.000  C
  H99      1.0000 0.90370  0.08170  0.43760  Biso   1.000  H
  H100     1.0000 0.09630  0.91830  0.56240  Biso   1.000  H
  C129     1.0000 0.96900  0.02480  0.36500  Biso   1.000  C
  C130     1.0000 0.03100  0.97520  0.63500  Biso   1.000  C
  H101     1.0000 0.98780  0.97610  0.39790  Biso   1.000  H
  H102     1.0000 0.01220  0.02390  0.60210  Biso   1.000  H
  C131     1.0000 0.99060  0.03540  0.29120  Biso   1.000  C
  C132     1.0000 0.00940  0.96460  0.70880  Biso   1.000  C
  H103     1.0000 0.02450  0.99340  0.27490  Biso   1.000  H
  H104     1.0000 0.97550  0.00660  0.72510  Biso   1.000  H
  C133     1.0000 0.96270  0.10690  0.24260  Biso   1.000  C
  C134     1.0000 0.03730  0.89310  0.75740  Biso   1.000  C
  H105     1.0000 0.97660  0.11320  0.19360  Biso   1.000  H
  H106     1.0000 0.02340  0.88680  0.80640  Biso   1.000  H
  C135     1.0000 0.91360  0.16980  0.26710  Biso   1.000  C
  C136     1.0000 0.08640  0.83020  0.73290  Biso   1.000  C
  H107     1.0000 0.89580  0.21850  0.23390  Biso   1.000  H
  H108     1.0000 0.10420  0.78150  0.76610  Biso   1.000  H
  C137     1.0000 0.73950  0.30250  0.30390  Biso   1.000  C
  C138     1.0000 0.26050  0.69750  0.69610  Biso   1.000  C
  C139     1.0000 0.76560  0.36660  0.24960  Biso   1.000  C
  C140     1.0000 0.23440  0.63340  0.75040  Biso   1.000  C
  H109     1.0000 0.82400  0.38110  0.25020  Biso   1.000  H
  H110     1.0000 0.17600  0.61890  0.74980  Biso   1.000  H
  C141     1.0000 0.70570  0.40890  0.19470  Biso   1.000  C
  C142     1.0000 0.29430  0.59110  0.80530  Biso   1.000  C
  H111     1.0000 0.72320  0.45210  0.15970  Biso   1.000  H
  H112     1.0000 0.27680  0.54790  0.84030  Biso   1.000  H
  C143     1.0000 0.62070  0.38720  0.19180  Biso   1.000  C
  C144     1.0000 0.37930  0.61280  0.80820  Biso   1.000  C
  H113     1.0000 0.58270  0.41450  0.15370  Biso   1.000  H
  H114     1.0000 0.41730  0.58550  0.84630  Biso   1.000  H
  C145     1.0000 0.59080  0.32360  0.24650  Biso   1.000  C
  C146     1.0000 0.40920  0.67640  0.75350  Biso   1.000  C
  H115     1.0000 0.53250  0.30930  0.24560  Biso   1.000  H
  H116     1.0000 0.46750  0.69070  0.75440  Biso   1.000  H
  C147     1.0000 0.65010  0.28320  0.30130  Biso   1.000  C
  C148     1.0000 0.34990  0.71680  0.69870  Biso   1.000  C
  C149     1.0000 0.64500  0.14930  0.35570  Biso   1.000  C
  C150     1.0000 0.35500  0.85070  0.64430  Biso   1.000  C
  C151     1.0000 0.66220  0.13180  0.29190  Biso   1.000  C
  C152     1.0000 0.33780  0.86820  0.70810  Biso   1.000  C
  H117     1.0000 0.65870  0.17110  0.24810  Biso   1.000  H
  H118     1.0000 0.34130  0.82890  0.75190  Biso   1.000  H
  C153     1.0000 0.68480  0.05550  0.29390  Biso   1.000  C
  C154     1.0000 0.31520  0.94450  0.70610  Biso   1.000  C
  H119     1.0000 0.69700  0.04340  0.25130  Biso   1.000  H
  H120     1.0000 0.30300  0.95660  0.74870  Biso   1.000  H
  C155     1.0000 0.68910  0.99800  0.35830  Biso   1.000  C
  C156     1.0000 0.31090  0.00200  0.64170  Biso   1.000  C
  H121     1.0000 0.70250  0.94700  0.35910  Biso   1.000  H
  H122     1.0000 0.29750  0.05300  0.64090  Biso   1.000  H
  C157     1.0000 0.67360  0.01480  0.42300  Biso   1.000  C
  C158     1.0000 0.32640  0.98520  0.57700  Biso   1.000  C
  H123     1.0000 0.67800  0.97500  0.46640  Biso   1.000  H
  H124     1.0000 0.32200  0.02500  0.53360  Biso   1.000  H
  C159     1.0000 0.65140  0.09170  0.42260  Biso   1.000  C
  C160     1.0000 0.34860  0.90830  0.57740  Biso   1.000  C
  C161     1.0000 0.49930  0.15770  0.52310  Biso   1.000  C
  C162     1.0000 0.50070  0.84230  0.47690  Biso   1.000  C
  C163     1.0000 0.42710  0.15830  0.48400  Biso   1.000  C
  C164     1.0000 0.57290  0.84170  0.51600  Biso   1.000  C
  H125     1.0000 0.44830  0.13700  0.44650  Biso   1.000  H
  H126     1.0000 0.55170  0.86300  0.55350  Biso   1.000  H
  C165     1.0000 0.32260  0.19090  0.50080  Biso   1.000  C
  C166     1.0000 0.67740  0.80910  0.49920  Biso   1.000  C
  H127     1.0000 0.27490  0.19130  0.47430  Biso   1.000  H
  H128     1.0000 0.72510  0.80870  0.52570  Biso   1.000  H
  C167     1.0000 0.29150  0.22200  0.55660  Biso   1.000  C
  C168     1.0000 0.70850  0.77800  0.44340  Biso   1.000  C
  H129     1.0000 0.22270  0.24450  0.56740  Biso   1.000  H
  H130     1.0000 0.77730  0.75550  0.43260  Biso   1.000  H
  C169     1.0000 0.36220  0.22000  0.59670  Biso   1.000  C
  C170     1.0000 0.63780  0.78000  0.40330  Biso   1.000  C
  H131     1.0000 0.34050  0.23950  0.63540  Biso   1.000  H
  H132     1.0000 0.65950  0.76050  0.36460  Biso   1.000  H
  C171     1.0000 0.46460  0.18920  0.57970  Biso   1.000  C
  C172     1.0000 0.53540  0.81080  0.42030  Biso   1.000  C
  H133     1.0000 0.51150  0.18930  0.60640  Biso   1.000  H
  H134     1.0000 0.48850  0.81070  0.39360  Biso   1.000  H
  C173     1.0000 0.66290  0.02580  0.57290  Biso   1.000  C
  C174     1.0000 0.33710  0.97420  0.42710  Biso   1.000  C
  C175     1.0000 0.58770  0.98430  0.60630  Biso   1.000  C
  C176     1.0000 0.41230  0.01570  0.39370  Biso   1.000  C
  H135     1.0000 0.52160  0.00450  0.59390  Biso   1.000  H
  H136     1.0000 0.47840  0.99550  0.40610  Biso   1.000  H
  C177     1.0000 0.61190  0.91260  0.65800  Biso   1.000  C
  C178     1.0000 0.38810  0.08740  0.34200  Biso   1.000  C
  H137     1.0000 0.56190  0.88500  0.67980  Biso   1.000  H
  H138     1.0000 0.43810  0.11500  0.32020  Biso   1.000  H
  C179     1.0000 0.70860  0.88230  0.67710  Biso   1.000  C
  C180     1.0000 0.29140  0.11770  0.32290  Biso   1.000  C
  H139     1.0000 0.72440  0.83420  0.71140  Biso   1.000  H
  H140     1.0000 0.27560  0.16580  0.28860  Biso   1.000  H
  C181     1.0000 0.78280  0.92410  0.64470  Biso   1.000  C
  C182     1.0000 0.21720  0.07590  0.35530  Biso   1.000  C
  H141     1.0000 0.84840  0.90380  0.65790  Biso   1.000  H
  H142     1.0000 0.15160  0.09620  0.34210  Biso   1.000  H
  C183     1.0000 0.76070  0.99480  0.59360  Biso   1.000  C
  C184     1.0000 0.23930  0.00520  0.40640  Biso   1.000  C
  H143     1.0000 0.81110  0.02220  0.57270  Biso   1.000  H
  H144     1.0000 0.18890  0.97780  0.42730  Biso   1.000  H
  C185     1.0000 0.65690  0.21230  0.92400  Biso   1.000  C
  C186     1.0000 0.34310  0.78770  0.07600  Biso   1.000  C
  H145     1.0000 0.64910  0.19570  0.97620  Biso   1.000  H
  H146     1.0000 0.35090  0.80430  0.02380  Biso   1.000  H
  H147     1.0000 0.58880  0.23690  0.91020  Biso   1.000  H
  H148     1.0000 0.41120  0.76310  0.08980  Biso   1.000  H
  C187     1.0000 0.61420  0.97410  0.81490  Biso   1.000  C
  C188     1.0000 0.38580  0.02590  0.18510  Biso   1.000  C
  H149     1.0000 0.61950  0.93420  0.79400  Biso   1.000  H
  H150     1.0000 0.38050  0.06580  0.20600  Biso   1.000  H
  H151     1.0000 0.57500  0.96090  0.86230  Biso   1.000  H
  H152     1.0000 0.42500  0.03910  0.13770  Biso   1.000  H
  Cl1      1.0000 0.72480  0.28256  0.89382  Biso   1.000  Cl
  Cl2      1.0000 0.27520  0.71744  0.10618  Biso   1.000  Cl
  Cl3      1.0000 0.69830  0.13407  0.89901  Biso   1.000  Cl
  Cl4      1.0000 0.30170  0.86593  0.10099  Biso   1.000  Cl
  Cl5      1.0000 0.73690  0.97310  0.82480  Biso   1.000  Cl
  Cl6      1.0000 0.26310  0.02690  0.17520  Biso   1.000  Cl
  Cl7      1.0000 0.54760  0.06014  0.76268  Biso   1.000  Cl
  Cl8      1.0000 0.45240  0.93986  0.23732  Biso   1.000  Cl
  C189     1.0000 0.32210  0.41570  0.28980  Biso   1.000  C
  C190     1.0000 0.67790  0.58430  0.71020  Biso   1.000  C
  H153     1.0000 0.37600  0.44330  0.27070  Biso   1.000  H
  H154     1.0000 0.62400  0.55670  0.72930  Biso   1.000  H
  H155     1.0000 0.25760  0.45320  0.29340  Biso   1.000  H
  H156     1.0000 0.74240  0.54680  0.70660  Biso   1.000  H
  Cl9      1.0000 0.34340  0.35210  0.37521  Biso   1.000  Cl
  Cl10     1.0000 0.65660  0.64790  0.62479  Biso   1.000  Cl
  Cl11     1.0000 0.31910  0.36763  0.23038  Biso   1.000  Cl
  Cl12     1.0000 0.68090  0.63237  0.76962  Biso   1.000  Cl
  Cl13     1.0000 0.50000  0.50000  0.00000  Biso   1.000  Cl
  Cl14     1.0000 0.47210  0.40720  0.92440  Biso   1.000  Cl
  Cl15     1.0000 0.52790  0.59280  0.07560  Biso   1.000  Cl
  C191     1.0000 0.46000  0.40400  0.06430  Biso   1.000  C
  C192     1.0000 0.54000  0.59600  0.93570  Biso   1.000  C
  C193     1.0000 0.53130  0.39130  0.99940  Biso   1.000  C
  C194     1.0000 0.46870  0.60870  0.00060  Biso   1.000  C
