data_image0
_cell_length_a       11.6531
_cell_length_b       21.9875
_cell_length_c       15.3104
_cell_angle_alpha    90
_cell_angle_beta     110.029
_cell_angle_gamma    90

_symmetry_space_group_name_H-M    "P 1"
_symmetry_int_tables_number       1

loop_
  _symmetry_equiv_pos_as_xyz
  'x, y, z'

loop_
  _atom_site_label
  _atom_site_occupancy
  _atom_site_fract_x
  _atom_site_fract_y
  _atom_site_fract_z
  _atom_site_thermal_displace_type
  _atom_site_B_iso_or_equiv
  _atom_site_type_symbol
  Cu1      1.0000 0.69515  0.16599  0.70722  Biso   1.000  Cu
  Cu2      1.0000 0.30485  0.66599  0.79278  Biso   1.000  Cu
  Cu3      1.0000 0.30485  0.83401  0.29278  Biso   1.000  Cu
  Cu4      1.0000 0.69515  0.33401  0.20722  Biso   1.000  Cu
  Cu5      1.0000 0.15121  0.19202  0.10725  Biso   1.000  Cu
  Cu6      1.0000 0.84879  0.69202  0.39275  Biso   1.000  Cu
  Cu7      1.0000 0.84879  0.80798  0.89275  Biso   1.000  Cu
  Cu8      1.0000 0.15121  0.30798  0.60725  Biso   1.000  Cu
  F1       1.0000 0.46790  0.21400  0.01300  Biso   1.000  F
  F2       1.0000 0.53210  0.71400  0.48700  Biso   1.000  F
  F3       1.0000 0.53210  0.78600  0.98700  Biso   1.000  F
  F4       1.0000 0.46790  0.28600  0.51300  Biso   1.000  F
  F5       1.0000 0.31160  0.20250  0.80110  Biso   1.000  F
  F6       1.0000 0.68840  0.70250  0.69890  Biso   1.000  F
  F7       1.0000 0.68840  0.79750  0.19890  Biso   1.000  F
  F8       1.0000 0.31160  0.29750  0.30110  Biso   1.000  F
  F9       1.0000 0.29040  0.16740  0.80900  Biso   1.000  F
  F10      1.0000 0.70960  0.66740  0.69100  Biso   1.000  F
  F11      1.0000 0.70960  0.83260  0.19100  Biso   1.000  F
  F12      1.0000 0.29040  0.33260  0.30900  Biso   1.000  F
  F13      1.0000 0.31260  0.15370  0.94130  Biso   1.000  F
  F14      1.0000 0.68740  0.65370  0.55870  Biso   1.000  F
  F15      1.0000 0.68740  0.84630  0.05870  Biso   1.000  F
  F16      1.0000 0.31260  0.34630  0.44130  Biso   1.000  F
  F17      1.0000 0.28960  0.25260  0.91560  Biso   1.000  F
  F18      1.0000 0.71040  0.75260  0.58440  Biso   1.000  F
  F19      1.0000 0.71040  0.74740  0.08440  Biso   1.000  F
  F20      1.0000 0.28960  0.24740  0.41560  Biso   1.000  F
  F21      1.0000 0.45200  0.26950  0.88180  Biso   1.000  F
  F22      1.0000 0.54800  0.76950  0.61820  Biso   1.000  F
  F23      1.0000 0.54800  0.73050  0.11820  Biso   1.000  F
  F24      1.0000 0.45200  0.23050  0.38180  Biso   1.000  F
  F25      1.0000 0.47550  0.22790  0.86040  Biso   1.000  F
  F26      1.0000 0.52450  0.72790  0.63960  Biso   1.000  F
  F27      1.0000 0.52450  0.77210  0.13960  Biso   1.000  F
  F28      1.0000 0.47550  0.27210  0.36040  Biso   1.000  F
  F29      1.0000 0.48750  0.17000  0.89330  Biso   1.000  F
  F30      1.0000 0.51250  0.67000  0.60670  Biso   1.000  F
  F31      1.0000 0.51250  0.83000  0.10670  Biso   1.000  F
  F32      1.0000 0.48750  0.33000  0.39330  Biso   1.000  F
  F33      1.0000 0.46190  0.12640  0.91060  Biso   1.000  F
  F34      1.0000 0.53810  0.62640  0.58940  Biso   1.000  F
  F35      1.0000 0.53810  0.87360  0.08940  Biso   1.000  F
  F36      1.0000 0.46190  0.37360  0.41060  Biso   1.000  F
  F37      1.0000 0.81750  0.29730  0.82890  Biso   1.000  F
  F38      1.0000 0.18250  0.79730  0.67110  Biso   1.000  F
  F39      1.0000 0.18250  0.70270  0.17110  Biso   1.000  F
  F40      1.0000 0.81750  0.20270  0.32890  Biso   1.000  F
  F41      1.0000 0.75290  0.38900  0.85120  Biso   1.000  F
  F42      1.0000 0.24710  0.88900  0.64880  Biso   1.000  F
  F43      1.0000 0.24710  0.61100  0.14880  Biso   1.000  F
  F44      1.0000 0.75290  0.11100  0.35120  Biso   1.000  F
  F45      1.0000 0.72070  0.38400  0.77280  Biso   1.000  F
  F46      1.0000 0.27930  0.88400  0.72720  Biso   1.000  F
  F47      1.0000 0.27930  0.61600  0.22720  Biso   1.000  F
  F48      1.0000 0.72070  0.11600  0.27280  Biso   1.000  F
  F49      1.0000 0.77650  0.36320  0.71650  Biso   1.000  F
  F50      1.0000 0.22350  0.86320  0.78350  Biso   1.000  F
  F51      1.0000 0.22350  0.63680  0.28350  Biso   1.000  F
  F52      1.0000 0.77650  0.13680  0.21650  Biso   1.000  F
  F53      1.0000 0.86120  0.34840  0.71410  Biso   1.000  F
  F54      1.0000 0.13880  0.84840  0.78590  Biso   1.000  F
  F55      1.0000 0.13880  0.65160  0.28590  Biso   1.000  F
  F56      1.0000 0.86120  0.15160  0.21410  Biso   1.000  F
  F57      1.0000 0.97390  0.34070  0.79930  Biso   1.000  F
  F58      1.0000 0.02610  0.84070  0.70070  Biso   1.000  F
  F59      1.0000 0.02610  0.65930  0.20070  Biso   1.000  F
  F60      1.0000 0.97390  0.15930  0.29930  Biso   1.000  F
  F61      1.0000 0.00160  0.34030  0.85460  Biso   1.000  F
  F62      1.0000 0.99840  0.84030  0.64540  Biso   1.000  F
  F63      1.0000 0.99840  0.65970  0.14540  Biso   1.000  F
  F64      1.0000 0.00160  0.15970  0.35460  Biso   1.000  F
  F65      1.0000 0.94210  0.36600  0.92660  Biso   1.000  F
  F66      1.0000 0.05790  0.86600  0.57340  Biso   1.000  F
  F67      1.0000 0.05790  0.63400  0.07340  Biso   1.000  F
  F68      1.0000 0.94210  0.13400  0.42660  Biso   1.000  F
  F69      1.0000 0.87300  0.37680  0.92840  Biso   1.000  F
  F70      1.0000 0.12700  0.87680  0.57160  Biso   1.000  F
  F71      1.0000 0.12700  0.62320  0.07160  Biso   1.000  F
  F72      1.0000 0.87300  0.12320  0.42840  Biso   1.000  F
  F73      1.0000 0.90020  0.43210  0.80730  Biso   1.000  F
  F74      1.0000 0.09980  0.93210  0.69270  Biso   1.000  F
  F75      1.0000 0.09980  0.56790  0.19270  Biso   1.000  F
  F76      1.0000 0.90020  0.06790  0.30730  Biso   1.000  F
  P1       1.0000 0.38630  0.21220  0.90780  Biso   1.000  P
  P2       1.0000 0.61370  0.71220  0.59220  Biso   1.000  P
  P3       1.0000 0.61370  0.78780  0.09220  Biso   1.000  P
  P4       1.0000 0.38630  0.28780  0.40780  Biso   1.000  P
  P5       1.0000 0.38920  0.18520  0.90860  Biso   1.000  P
  P6       1.0000 0.61080  0.68520  0.59140  Biso   1.000  P
  P7       1.0000 0.61080  0.81480  0.09140  Biso   1.000  P
  P8       1.0000 0.38920  0.31480  0.40860  Biso   1.000  P
  P9       1.0000 0.86080  0.36479  0.82020  Biso   1.000  P
  P10      1.0000 0.13920  0.86479  0.67980  Biso   1.000  P
  P11      1.0000 0.13920  0.63521  0.17980  Biso   1.000  P
  P12      1.0000 0.86080  0.13521  0.32020  Biso   1.000  P
  C1       1.0000 0.38420  0.15010  0.21860  Biso   1.000  C
  C2       1.0000 0.61580  0.65010  0.28140  Biso   1.000  C
  C3       1.0000 0.61580  0.84990  0.78140  Biso   1.000  C
  C4       1.0000 0.38420  0.34990  0.71860  Biso   1.000  C
  C5       1.0000 0.94170  0.18460  0.82640  Biso   1.000  C
  C6       1.0000 0.05830  0.68460  0.67360  Biso   1.000  C
  C7       1.0000 0.05830  0.81540  0.17360  Biso   1.000  C
  C8       1.0000 0.94170  0.31540  0.32640  Biso   1.000  C
  C9       1.0000 0.46670  0.11060  0.26750  Biso   1.000  C
  C10      1.0000 0.53330  0.61060  0.23250  Biso   1.000  C
  C11      1.0000 0.53330  0.88940  0.73250  Biso   1.000  C
  C12      1.0000 0.46670  0.38940  0.76750  Biso   1.000  C
  H1       1.0000 0.54790  0.12160  0.28030  Biso   1.000  H
  H2       1.0000 0.45210  0.62160  0.21970  Biso   1.000  H
  H3       1.0000 0.45210  0.87840  0.71970  Biso   1.000  H
  H4       1.0000 0.54790  0.37840  0.78030  Biso   1.000  H
  C13      1.0000 0.04430  0.18800  0.90470  Biso   1.000  C
  C14      1.0000 0.95570  0.68800  0.59530  Biso   1.000  C
  C15      1.0000 0.95570  0.81200  0.09530  Biso   1.000  C
  C16      1.0000 0.04430  0.31200  0.40470  Biso   1.000  C
  H5       1.0000 0.11330  0.20860  0.90310  Biso   1.000  H
  H6       1.0000 0.88670  0.70860  0.59690  Biso   1.000  H
  H7       1.0000 0.88670  0.79140  0.09690  Biso   1.000  H
  H8       1.0000 0.11330  0.29140  0.40310  Biso   1.000  H
  C17      1.0000 0.24140  0.07910  0.22160  Biso   1.000  C
  C18      1.0000 0.75860  0.57910  0.27840  Biso   1.000  C
  C19      1.0000 0.75860  0.92090  0.77840  Biso   1.000  C
  C20      1.0000 0.24140  0.42090  0.72160  Biso   1.000  C
  C21      1.0000 0.84870  0.12680  0.90680  Biso   1.000  C
  C22      1.0000 0.15130  0.62680  0.59320  Biso   1.000  C
  C23      1.0000 0.15130  0.87320  0.09320  Biso   1.000  C
  C24      1.0000 0.84870  0.37320  0.40680  Biso   1.000  C
  C25      1.0000 0.11360  0.05740  0.19530  Biso   1.000  C
  C26      1.0000 0.88640  0.55740  0.30470  Biso   1.000  C
  C27      1.0000 0.88640  0.94260  0.80470  Biso   1.000  C
  C28      1.0000 0.11360  0.44260  0.69530  Biso   1.000  C
  H9       1.0000 0.05910  0.08870  0.16130  Biso   1.000  H
  H10      1.0000 0.94090  0.58870  0.33870  Biso   1.000  H
  H11      1.0000 0.94090  0.91130  0.83870  Biso   1.000  H
  H12      1.0000 0.05910  0.41130  0.66130  Biso   1.000  H
  H13      1.0000 0.10320  0.02180  0.15710  Biso   1.000  H
  H14      1.0000 0.89680  0.52180  0.34290  Biso   1.000  H
  H15      1.0000 0.89680  0.97820  0.84290  Biso   1.000  H
  H16      1.0000 0.10320  0.47820  0.65710  Biso   1.000  H
  H17      1.0000 0.09560  0.04770  0.25040  Biso   1.000  H
  H18      1.0000 0.90440  0.54770  0.24960  Biso   1.000  H
  H19      1.0000 0.90440  0.95230  0.74960  Biso   1.000  H
  H20      1.0000 0.09560  0.45230  0.75040  Biso   1.000  H
  C29      1.0000 0.74010  0.09290  0.90980  Biso   1.000  C
  C30      1.0000 0.25990  0.59290  0.59020  Biso   1.000  C
  C31      1.0000 0.25990  0.90710  0.09020  Biso   1.000  C
  C32      1.0000 0.74010  0.40710  0.40980  Biso   1.000  C
  H21      1.0000 0.67640  0.09520  0.85030  Biso   1.000  H
  H22      1.0000 0.32360  0.59520  0.64970  Biso   1.000  H
  H23      1.0000 0.32360  0.90480  0.14970  Biso   1.000  H
  H24      1.0000 0.67640  0.40480  0.35030  Biso   1.000  H
  H25      1.0000 0.71200  0.11030  0.95630  Biso   1.000  H
  H26      1.0000 0.28800  0.61030  0.54370  Biso   1.000  H
  H27      1.0000 0.28800  0.88970  0.04370  Biso   1.000  H
  H28      1.0000 0.71200  0.38970  0.45630  Biso   1.000  H
  H29      1.0000 0.76170  0.05100  0.92490  Biso   1.000  H
  H30      1.0000 0.23830  0.55100  0.57510  Biso   1.000  H
  H31      1.0000 0.23830  0.94900  0.07510  Biso   1.000  H
  H32      1.0000 0.76170  0.44900  0.42490  Biso   1.000  H
  C33      1.0000 0.41100  0.21060  0.18900  Biso   1.000  C
  C34      1.0000 0.58900  0.71060  0.31100  Biso   1.000  C
  C35      1.0000 0.58900  0.78940  0.81100  Biso   1.000  C
  C36      1.0000 0.41100  0.28940  0.68900  Biso   1.000  C
  C37      1.0000 0.93600  0.21190  0.73520  Biso   1.000  C
  C38      1.0000 0.06400  0.71190  0.76480  Biso   1.000  C
  C39      1.0000 0.06400  0.78810  0.26480  Biso   1.000  C
  C40      1.0000 0.93600  0.28810  0.23520  Biso   1.000  C
  C41      1.0000 0.55940  0.01530  0.52460  Biso   1.000  C
  C42      1.0000 0.44060  0.51530  0.97540  Biso   1.000  C
  C43      1.0000 0.44060  0.98470  0.47540  Biso   1.000  C
  C44      1.0000 0.55940  0.48470  0.02460  Biso   1.000  C
  C45      1.0000 0.52560  0.23560  0.21420  Biso   1.000  C
  C46      1.0000 0.47440  0.73560  0.28580  Biso   1.000  C
  C47      1.0000 0.47440  0.76440  0.78580  Biso   1.000  C
  C48      1.0000 0.52560  0.26440  0.71420  Biso   1.000  C
  H33      1.0000 0.59380  0.21330  0.24910  Biso   1.000  H
  H34      1.0000 0.40620  0.71330  0.25090  Biso   1.000  H
  H35      1.0000 0.40620  0.78670  0.75090  Biso   1.000  H
  H36      1.0000 0.59380  0.28670  0.74910  Biso   1.000  H
  C49      1.0000 0.03320  0.23860  0.72070  Biso   1.000  C
  C50      1.0000 0.96680  0.73860  0.77930  Biso   1.000  C
  C51      1.0000 0.96680  0.76140  0.27930  Biso   1.000  C
  C52      1.0000 0.03320  0.26140  0.22070  Biso   1.000  C
  H37      1.0000 0.10740  0.24090  0.76950  Biso   1.000  H
  H38      1.0000 0.89260  0.74090  0.73050  Biso   1.000  H
  H39      1.0000 0.89260  0.75910  0.23050  Biso   1.000  H
  H40      1.0000 0.10740  0.25910  0.26950  Biso   1.000  H
  C53      1.0000 0.56650  0.06290  0.58410  Biso   1.000  C
  C54      1.0000 0.43350  0.56290  0.91590  Biso   1.000  C
  C55      1.0000 0.43350  0.93710  0.41590  Biso   1.000  C
  C56      1.0000 0.56650  0.43710  0.08410  Biso   1.000  C
  H41      1.0000 0.49600  0.07570  0.59410  Biso   1.000  H
  H42      1.0000 0.50400  0.57570  0.90590  Biso   1.000  H
  H43      1.0000 0.50400  0.92430  0.40590  Biso   1.000  H
  H44      1.0000 0.49600  0.42430  0.09410  Biso   1.000  H
  C57      1.0000 0.33090  0.29770  0.11310  Biso   1.000  C
  C58      1.0000 0.66910  0.79770  0.38690  Biso   1.000  C
  C59      1.0000 0.66910  0.70230  0.88690  Biso   1.000  C
  C60      1.0000 0.33090  0.20230  0.61310  Biso   1.000  C
  C61      1.0000 0.82380  0.22910  0.58320  Biso   1.000  C
  C62      1.0000 0.17620  0.72910  0.91680  Biso   1.000  C
  C63      1.0000 0.17620  0.77090  0.41680  Biso   1.000  C
  C64      1.0000 0.82380  0.27090  0.08320  Biso   1.000  C
  C65      1.0000 0.76110  0.02500  0.55650  Biso   1.000  C
  C66      1.0000 0.23890  0.52500  0.94350  Biso   1.000  C
  C67      1.0000 0.23890  0.97500  0.44350  Biso   1.000  C
  C68      1.0000 0.76110  0.47500  0.05650  Biso   1.000  C
  C69      1.0000 0.22470  0.33580  0.06070  Biso   1.000  C
  C70      1.0000 0.77530  0.83580  0.43930  Biso   1.000  C
  C71      1.0000 0.77530  0.66420  0.93930  Biso   1.000  C
  C72      1.0000 0.22470  0.16420  0.56070  Biso   1.000  C
  H45      1.0000 0.15120  0.31220  0.04600  Biso   1.000  H
  H46      1.0000 0.84880  0.81220  0.45400  Biso   1.000  H
  H47      1.0000 0.84880  0.68780  0.95400  Biso   1.000  H
  H48      1.0000 0.15120  0.18780  0.54600  Biso   1.000  H
  H49      1.0000 0.21970  0.37020  0.09790  Biso   1.000  H
  H50      1.0000 0.78030  0.87020  0.40210  Biso   1.000  H
  H51      1.0000 0.78030  0.62980  0.90210  Biso   1.000  H
  H52      1.0000 0.21970  0.12980  0.59790  Biso   1.000  H
  H53      1.0000 0.23450  0.34970  0.00420  Biso   1.000  H
  H54      1.0000 0.76550  0.84970  0.49580  Biso   1.000  H
  H55      1.0000 0.76550  0.65030  0.99580  Biso   1.000  H
  H56      1.0000 0.23450  0.15030  0.50420  Biso   1.000  H
  C73      1.0000 0.71110  0.22170  0.50350  Biso   1.000  C
  C74      1.0000 0.28890  0.72170  0.99650  Biso   1.000  C
  C75      1.0000 0.28890  0.77830  0.49650  Biso   1.000  C
  C76      1.0000 0.71110  0.27830  0.00350  Biso   1.000  C
  H57      1.0000 0.64940  0.20370  0.52370  Biso   1.000  H
  H58      1.0000 0.35060  0.70370  0.97630  Biso   1.000  H
  H59      1.0000 0.35060  0.79630  0.47630  Biso   1.000  H
  H60      1.0000 0.64940  0.29630  0.02370  Biso   1.000  H
  H61      1.0000 0.72630  0.19580  0.45820  Biso   1.000  H
  H62      1.0000 0.27370  0.69580  0.04180  Biso   1.000  H
  H63      1.0000 0.27370  0.80420  0.54180  Biso   1.000  H
  H64      1.0000 0.72630  0.30420  0.95820  Biso   1.000  H
  H65      1.0000 0.68360  0.26070  0.47630  Biso   1.000  H
  H66      1.0000 0.31640  0.76070  0.02370  Biso   1.000  H
  H67      1.0000 0.31640  0.73930  0.52370  Biso   1.000  H
  H68      1.0000 0.68360  0.23930  0.97630  Biso   1.000  H
  C77      1.0000 0.87550  0.00390  0.54350  Biso   1.000  C
  C78      1.0000 0.12450  0.50390  0.95650  Biso   1.000  C
  C79      1.0000 0.12450  0.99610  0.45650  Biso   1.000  C
  C80      1.0000 0.87550  0.49610  0.04350  Biso   1.000  C
  H69      1.0000 0.85770  0.97000  0.50140  Biso   1.000  H
  H70      1.0000 0.14230  0.47000  0.99860  Biso   1.000  H
  H71      1.0000 0.14230  0.03000  0.49860  Biso   1.000  H
  H72      1.0000 0.85770  0.53000  0.00140  Biso   1.000  H
  H73      1.0000 0.93320  0.99160  0.60240  Biso   1.000  H
  H74      1.0000 0.06680  0.49160  0.89760  Biso   1.000  H
  H75      1.0000 0.06680  0.00840  0.39760  Biso   1.000  H
  H76      1.0000 0.93320  0.50840  0.10240  Biso   1.000  H
  H77      1.0000 0.90960  0.03640  0.51840  Biso   1.000  H
  H78      1.0000 0.09040  0.53640  0.98160  Biso   1.000  H
  H79      1.0000 0.09040  0.96360  0.48160  Biso   1.000  H
  H80      1.0000 0.90960  0.46360  0.01840  Biso   1.000  H
  N1       1.0000 0.26580  0.13360  0.19340  Biso   1.000  N
  N2       1.0000 0.73420  0.63360  0.30660  Biso   1.000  N
  N3       1.0000 0.73420  0.86640  0.80660  Biso   1.000  N
  N4       1.0000 0.26580  0.36640  0.69340  Biso   1.000  N
  N5       1.0000 0.84020  0.15650  0.82760  Biso   1.000  N
  N6       1.0000 0.15980  0.65650  0.67240  Biso   1.000  N
  N7       1.0000 0.15980  0.84350  0.17240  Biso   1.000  N
  N8       1.0000 0.84020  0.34350  0.32760  Biso   1.000  N
  N9       1.0000 0.44700  0.05680  0.30070  Biso   1.000  N
  N10      1.0000 0.55300  0.55680  0.19930  Biso   1.000  N
  N11      1.0000 0.55300  0.94320  0.69930  Biso   1.000  N
  N12      1.0000 0.44700  0.44320  0.80070  Biso   1.000  N
  N13      1.0000 0.04390  0.16110  0.98410  Biso   1.000  N
  N14      1.0000 0.95610  0.66110  0.51590  Biso   1.000  N
  N15      1.0000 0.95610  0.83890  0.01590  Biso   1.000  N
  N16      1.0000 0.04390  0.33890  0.48410  Biso   1.000  N
  N17      1.0000 0.32430  0.03810  0.27070  Biso   1.000  N
  N18      1.0000 0.67570  0.53810  0.22930  Biso   1.000  N
  N19      1.0000 0.67570  0.96190  0.72930  Biso   1.000  N
  N20      1.0000 0.32430  0.46190  0.77070  Biso   1.000  N
  N21      1.0000 0.94690  0.12910  0.98230  Biso   1.000  N
  N22      1.0000 0.05310  0.62910  0.51770  Biso   1.000  N
  N23      1.0000 0.05310  0.87090  0.01770  Biso   1.000  N
  N24      1.0000 0.94690  0.37090  0.48230  Biso   1.000  N
  N25      1.0000 0.31080  0.24030  0.13550  Biso   1.000  N
  N26      1.0000 0.68920  0.74030  0.36450  Biso   1.000  N
  N27      1.0000 0.68920  0.75970  0.86450  Biso   1.000  N
  N28      1.0000 0.31080  0.25970  0.63550  Biso   1.000  N
  N29      1.0000 0.82900  0.20850  0.66800  Biso   1.000  N
  N30      1.0000 0.17100  0.70850  0.83200  Biso   1.000  N
  N31      1.0000 0.17100  0.79150  0.33200  Biso   1.000  N
  N32      1.0000 0.82900  0.29150  0.16800  Biso   1.000  N
  N33      1.0000 0.65710  0.99610  0.50960  Biso   1.000  N
  N34      1.0000 0.34290  0.49610  0.99040  Biso   1.000  N
  N35      1.0000 0.34290  0.00390  0.49040  Biso   1.000  N
  N36      1.0000 0.65710  0.50390  0.00960  Biso   1.000  N
  N37      1.0000 0.53730  0.20840  0.68810  Biso   1.000  N
  N38      1.0000 0.46270  0.70840  0.81190  Biso   1.000  N
  N39      1.0000 0.46270  0.79160  0.31190  Biso   1.000  N
  N40      1.0000 0.53730  0.29160  0.18810  Biso   1.000  N
  N41      1.0000 0.02420  0.26140  0.63840  Biso   1.000  N
  N42      1.0000 0.97580  0.76140  0.86160  Biso   1.000  N
  N43      1.0000 0.97580  0.73860  0.36160  Biso   1.000  N
  N44      1.0000 0.02420  0.23860  0.13840  Biso   1.000  N
  N45      1.0000 0.66950  0.09080  0.62710  Biso   1.000  N
  N46      1.0000 0.33050  0.59080  0.87290  Biso   1.000  N
  N47      1.0000 0.33050  0.90920  0.37290  Biso   1.000  N
  N48      1.0000 0.66950  0.40920  0.12710  Biso   1.000  N
  N49      1.0000 0.44070  0.32500  0.13890  Biso   1.000  N
  N50      1.0000 0.55930  0.82500  0.36110  Biso   1.000  N
  N51      1.0000 0.55930  0.67500  0.86110  Biso   1.000  N
  N52      1.0000 0.44070  0.17500  0.63890  Biso   1.000  N
  N53      1.0000 0.91770  0.25440  0.56680  Biso   1.000  N
  N54      1.0000 0.08230  0.75440  0.93320  Biso   1.000  N
  N55      1.0000 0.08230  0.74560  0.43320  Biso   1.000  N
  N56      1.0000 0.91770  0.24560  0.06680  Biso   1.000  N
  N57      1.0000 0.77030  0.07110  0.61160  Biso   1.000  N
  N58      1.0000 0.22970  0.57110  0.88840  Biso   1.000  N
  N59      1.0000 0.22970  0.92890  0.38840  Biso   1.000  N
  N60      1.0000 0.77030  0.42890  0.11160  Biso   1.000  N
